  239
chainlength_6ptma_time_50%rad_15ns
 C    19.980  11.850  19.350
   C    18.480  11.970  19.760
   C    18.120  10.530  20.260
   C    17.660  12.280  18.500
   O    16.850  11.510  18.050
   O    18.100  13.330  17.910
   C    17.670  13.710  16.570
   C    18.200  15.180  16.320
   C    18.060  15.660  14.860
   C    17.090  16.910  14.790
   C    19.460  16.000  14.350
   N    17.440  14.560  14.020
   H    16.880  14.810  13.110
   C    17.750  13.130  14.140
   C    16.440  12.290  13.820
   C    18.790  12.910  12.960
   C    18.280  12.830  15.510
   C    18.360  13.130  20.820
   C    17.090  13.470  21.700
   C    15.820  13.660  20.740
   C    16.970  12.400  22.770
   O    15.840  11.970  23.100
   O    18.120  11.990  23.290
   C    18.200  11.340  24.550
   C    17.850  9.840  24.490
   C    17.930  9.040  25.790
   C    16.600  9.140  26.670
   C    18.150  7.510  25.500
   N    19.020  9.510  26.720
   O    19.350  8.880  27.720
   C    19.740  10.840  26.480
   C    19.190  11.980  27.350
   C    21.270  10.640  26.800
   C    19.610  11.320  25.000
   C    17.290  14.900  22.360
   C    16.550  15.410  23.680
   C    16.710  16.960  23.600
   C    17.240  15.040  25.040
   O    18.180  14.280  24.970
   O    17.080  15.980  25.900
   C    18.090  16.400  26.760
   C    17.540  16.480  28.180
   C    18.630  16.820  29.230
   C    19.220  15.460  29.850
   C    18.100  17.620  30.430
   N    19.800  17.460  28.640
   H    20.690  17.530  29.270
   C    19.830  18.130  27.290
   C    21.180  17.770  26.740
   C    19.840  19.650  27.540
   C    18.650  17.720  26.380
   C    14.980  15.190  23.680
   C    14.010  14.930  24.980
   C    14.670  13.910  25.980
   C    13.740  16.220  25.780
   O    13.400  16.080  26.970
   O    14.080  17.300  25.180
   C    13.820  18.600  25.660
   C    14.620  18.930  26.870
   C    14.340  20.340  27.400
   C    15.600  20.700  28.140
   C    13.110  20.210  28.290
   N    14.120  21.430  26.370
   O    14.020  22.600  26.770
   C    13.760  21.100  24.930
   C    12.320  21.400  24.670
   C    14.540  21.970  23.970
   C    14.110  19.620  24.530
   C    12.670  14.230  24.490
   C    11.420  15.100  24.050
   C    10.660  15.730  25.270
   C    11.780  16.180  23.040
   O    11.680  17.370  23.310
   O    12.300  15.730  21.850
   C    12.510  16.690  20.800
   C    13.640  17.650  21.070
   C    13.680  18.810  20.070
   C    12.710  19.850  20.600
   C    15.170  19.330  20.000
   N    13.170  18.340  18.770
   H    12.710  18.960  18.000
   C    13.320  16.870  18.390
   C    14.760  16.610  17.910
   C    12.550  16.750  17.150
   C    12.820  15.950  19.510
   C    10.290  14.000  23.570
   C    9.180  14.140  22.410
   C    8.170  13.080  22.580
   C    9.780  14.080  20.940
   O    9.580  15.040  20.200
   O    10.390  12.950  20.620
   C    10.690  12.600  19.260
   C    12.150  12.090  19.240
   C    12.490  11.400  17.880
   C    13.590  10.350  18.150
   C    13.140  12.440  16.880
   N    11.300  10.780  17.110
   O    11.520  10.210  16.040
   C    9.850  11.000  17.480
   C    9.010  9.740  17.320
   C    9.330  12.000  16.530
   C    9.710  11.500  18.850
   C    8.550  15.580  22.600
   H    20.550  11.250  20.060
   H    20.090  11.390  18.370
   H    20.530  12.790  19.290
   H    18.380  9.680  19.630
   H    17.050  10.530  20.470
   H    18.570  10.270  21.220
   H    16.590  13.760  16.630
   H    17.710  15.860  17.010
   H    19.260  15.210  16.540
   H    17.690  17.750  15.130
   H    16.170  16.700  15.340
   H    16.880  17.140  13.750
   H    19.990  16.900  14.670
   H    19.460  16.050  13.260
   H    20.160  15.190  14.550
   H    16.060  12.530  12.820
   H    16.640  11.240  14.040
   H    15.580  12.590  14.420
   H    19.260  11.930  12.930
   H    19.630  13.610  12.940
   H    18.340  13.010  11.970
   H    19.360  12.980  15.490
   H    18.090  11.790  15.760
   H    19.210  12.950  21.480
   H    18.720  13.980  20.230
   H    16.020  14.380  19.940
   H    14.890  13.860  21.280
   H    15.510  12.760  20.210
   H    17.450  11.840  25.160
   H    16.840  9.720  24.100
   H    18.490  9.260  23.820
   H    16.560  10.170  27.050
   H    15.650  9.030  26.150
   H    16.530  8.330  27.400
   H    17.160  7.050  25.460
   H    18.870  6.980  26.110
   H    18.270  7.240  24.460
   H    18.180  12.300  27.090
   H    19.240  11.610  28.370
   H    19.750  12.910  27.190
   H    21.800  10.040  26.060
   H    21.840  11.550  26.930
   H    21.490  10.050  27.690
   H    20.180  10.760  24.260
   H    19.980  12.340  24.920
   H    16.960  15.630  21.630
   H    18.350  14.970  22.610
   H    17.780  17.170  23.560
   H    16.440  17.430  22.650
   H    16.400  17.530  24.470
   H    18.890  15.680  26.610
   H    17.180  15.510  28.500
   H    16.670  17.140  28.180
   H    18.360  14.850  30.140
   H    19.730  15.730  30.780
   H    19.790  14.840  29.170
   H    18.870  18.040  31.070
   H    17.590  18.490  30.010
   H    17.370  17.060  31.020
   H    21.350  18.270  25.790
   H    21.190  16.690  26.580
   H    22.100  18.020  27.260
   H    19.160  19.770  28.380
   H    20.830  19.960  27.850
   H    19.460  20.160  26.660
   H    19.050  17.540  25.380
   H    17.890  18.490  26.260
   H    14.800  14.260  23.130
   H    14.620  15.980  23.020
   H    15.190  14.370  26.820
   H    15.220  13.080  25.540
   H    13.930  13.380  26.590
   H    12.760  18.670  25.920
   H    15.680  18.790  26.640
   H    14.440  18.180  27.640
   H    15.840  19.830  28.760
   H    15.350  21.530  28.800
   H    16.270  20.930  27.320
   H    12.230  19.940  27.710
   H    13.250  19.540  29.140
   H    12.830  21.200  28.650
   H    12.140  22.460  24.840
   H    12.060  21.200  23.630
   H    11.700  20.870  25.390
   H    14.240  21.860  22.930
   H    14.450  23.030  24.190
   H    15.620  21.840  23.970
   H    15.120  19.490  24.150
   H    13.460  19.400  23.690
   H    12.840  13.450  23.750
   H    12.310  13.710  25.380
   H    11.110  16.660  25.620
   H    10.580  15.100  26.160
   H    9.640  15.990  25.000
   H    11.550  17.160  20.580
   H    14.590  17.140  20.950
   H    13.720  17.910  22.130
   H    12.890  19.980  21.670
   H    11.670  19.610  20.390
   H    12.870  20.890  20.330
   H    15.780  18.550  19.550
   H    15.600  19.450  21.000
   H    15.200  20.270  19.440
   H    15.180  17.410  17.310
   H    14.880  15.640  17.410
   H    15.370  16.420  18.800
   H    12.940  17.340  16.320
   H    11.530  17.060  17.360
   H    12.350  15.740  16.790
   H    13.560  15.170  19.710
   H    11.980  15.390  19.100
   H    10.940  13.160  23.350
   H    9.830  13.560  24.450
   H    7.520  12.870  21.730
   H    8.620  12.110  22.790
   H    7.550  13.380  23.430
   H    10.630  13.430  18.550
   H    12.140  11.240  19.930
   H    12.830  12.840  19.660
   H    14.490  10.790  18.570
   H    13.870  9.930  17.190
   H    13.190  9.530  18.750
   H    14.210  12.600  16.990
   H    12.970  12.120  15.850
   H    12.670  13.420  16.960
   H    9.040  9.230  16.360
   H    9.240  8.930  18.010
   H    7.960  10.030  17.450
   H    8.330  12.380  16.720
   H    9.370  11.520  15.550
   H    9.930  12.910  16.450
   H    9.730  10.690  19.580
   H    8.780  12.050  19.040
   H    8.160  15.810  23.600
   H    9.250  16.360  22.310
   H    7.670  15.690  21.960
  
