  239
chainlength_6ptma_50%rad_time_0.005ps
 C    18.840  19.140  26.180
   C    17.380  19.570  25.830
   C    16.920  18.710  24.670
   C    17.490  21.050  25.340
   O    17.310  21.350  24.190
   O    17.920  21.900  26.290
   C    18.510  23.120  25.880
   C    17.410  24.170  25.660
   C    18.030  25.540  25.140
   C    18.170  25.470  23.580
   C    17.060  26.630  25.480
   N    19.420  25.750  25.700
   H    19.930  26.690  25.530
   C    19.740  25.070  27.060
   C    21.220  25.240  27.390
   C    19.000  25.810  28.220
   C    19.440  23.600  27.020
   C    16.560  19.410  27.120
   C    15.000  19.250  27.110
   C    14.360  20.430  26.350
   C    14.590  17.850  26.560
   O    13.730  17.750  25.680
   O    15.290  16.910  27.130
   C    14.910  15.490  26.840
   C    15.940  14.800  25.890
   C    17.000  13.970  26.600
   C    17.820  13.280  25.490
   C    17.980  14.810  27.420
   N    16.370  12.950  27.580
   O    16.500  11.690  27.300
   C    15.020  13.270  28.170
   C    13.890  12.630  27.310
   C    14.910  12.740  29.620
   C    14.820  14.760  28.210
   C    14.520  19.280  28.660
   C    13.050  19.530  29.200
   C    12.920  21.040  29.410
   C    13.140  18.810  30.570
   O    13.160  17.560  30.660
   O    13.350  19.620  31.640
   C    13.670  18.980  32.880
   C    12.400  18.280  33.520
   C    12.770  17.630  34.890
   C    13.500  16.330  34.590
   C    11.410  17.280  35.510
   N    13.570  18.570  35.780
   H    13.700  18.080  36.750
   C    14.600  19.430  35.210
   C    16.010  18.720  35.050
   C    14.800  20.670  36.120
   C    14.190  19.990  33.830
   C    11.910  18.990  28.300
   C    10.440  18.560  28.770
   C    10.420  17.480  29.880
   C    9.500  19.600  29.360
   O    8.270  19.420  29.290
   O    10.060  20.500  30.100
   C    9.190  21.300  30.950
   C    9.890  21.690  32.230
   C    10.150  23.240  32.480
   C    11.250  23.790  31.570
   C    10.700  23.390  33.900
   N    8.820  23.990  32.230
   O    8.290  24.510  33.290
   C    7.900  23.460  31.250
   C    6.720  22.780  31.910
   C    7.320  24.620  30.430
   C    8.590  22.490  30.210
   C    9.710  17.830  27.540
   C    9.360  18.440  26.130
   C    8.090  17.740  25.720
   C    8.890  19.940  26.250
   O    7.780  20.300  26.620
   O    9.820  20.850  25.890
   C    9.300  21.990  25.270
   C    9.090  23.150  26.250
   C    8.400  24.330  25.550
   C    6.850  24.110  25.700
   C    8.740  25.650  26.370
   N    8.670  24.400  24.060
   H    8.280  25.290  23.560
   C    10.020  23.920  23.600
   C    11.180  24.780  24.060
   C    10.100  23.830  22.120
   C    10.230  22.460  24.130
   C    10.440  18.290  25.000
   C    10.660  17.020  24.210
   C    10.960  15.820  25.120
   C    11.830  17.240  23.220
   O    12.060  18.370  22.660
   O    12.540  16.090  22.950
   C    13.410  16.110  21.750
   C    14.630  15.220  22.080
   C    15.470  14.940  20.850
   C    16.360  13.690  21.230
   C    16.440  16.120  20.550
   N    14.710  14.720  19.520
   O    15.290  14.010  18.690
   C    13.260  14.410  19.660
   C    12.950  13.040  20.270
   C    12.550  14.500  18.350
   C    12.610  15.550  20.560
   C    9.520  16.670  23.250
   H    18.940  18.100  26.510
   H    19.450  19.360  25.310
   H    19.290  19.670  27.020
   H    16.900  17.680  25.010
   H    17.650  18.720  23.860
   H    15.950  18.990  24.280
   H    19.130  23.040  24.990
   H    16.740  23.820  24.860
   H    16.810  24.440  26.530
   H    18.940  24.720  23.380
   H    18.550  26.350  23.060
   H    17.250  25.240  23.050
   H    16.070  26.380  25.110
   H    17.280  27.600  25.030
   H    17.130  26.770  26.560
   H    21.600  26.260  27.480
   H    21.480  24.750  28.330
   H    21.830  24.810  26.600
   H    17.910  25.720  28.140
   H    19.210  26.880  28.290
   H    19.280  25.430  29.200
   H    18.890  23.290  27.910
   H    20.350  23.030  26.820
   H    16.980  18.600  27.710
   H    16.870  20.230  27.770
   H    13.280  20.580  26.270
   H    14.580  20.460  25.290
   H    14.490  21.400  26.840
   H    13.920  15.460  26.400
   H    15.390  14.170  25.190
   H    16.420  15.570  25.280
   H    17.250  12.650  24.800
   H    18.290  14.030  24.860
   H    18.620  12.690  25.940
   H    18.810  14.200  27.780
   H    17.470  15.410  28.170
   H    18.310  15.540  26.690
   H    13.030  13.100  27.800
   H    13.970  12.690  26.230
   H    14.000  11.550  27.420
   H    14.870  11.660  29.530
   H    15.750  13.110  30.200
   H    14.000  13.080  30.120
   H    15.540  15.090  28.950
   H    13.890  15.080  28.690
   H    15.130  20.010  29.200
   H    14.890  18.340  29.070
   H    12.760  21.440  28.400
   H    12.230  21.410  30.170
   H    13.860  21.530  29.650
   H    14.440  18.240  32.670
   H    11.910  17.580  32.850
   H    11.650  19.060  33.630
   H    13.830  15.860  35.520
   H    14.380  16.650  34.040
   H    12.850  15.600  34.120
   H    10.930  18.200  35.830
   H    10.810  16.620  34.880
   H    11.480  16.660  36.410
   H    16.710  19.470  34.690
   H    15.990  17.870  34.370
   H    16.370  18.310  35.990
   H    13.850  21.130  36.400
   H    15.300  20.340  37.030
   H    15.510  21.420  35.760
   H    15.020  20.440  33.280
   H    13.460  20.800  33.900
   H    12.210  18.060  27.820
   H    11.820  19.670  27.450
   H    11.050  16.630  29.640
   H    9.490  16.960  30.100
   H    10.670  17.820  30.880
   H    8.480  20.610  31.400
   H    10.840  21.160  32.210
   H    9.430  21.400  33.180
   H    12.170  23.230  31.710
   H    11.460  24.820  31.880
   H    11.170  23.690  30.490
   H    10.940  24.430  34.130
   H    10.000  23.050  34.660
   H    11.660  22.930  34.150
   H    6.150  22.330  31.100
   H    7.120  22.010  32.570
   H    5.950  23.390  32.380
   H    8.190  25.170  30.070
   H    6.630  24.310  29.650
   H    6.930  25.500  30.940
   H    9.340  23.030  29.630
   H    7.810  22.150  29.530
   H    10.340  16.940  27.470
   H    8.780  17.420  27.930
   H    8.250  16.660  25.660
   H    7.840  18.060  24.710
   H    7.310  17.760  26.470
   H    8.280  21.860  24.890
   H    10.030  23.430  26.730
   H    8.400  22.840  27.030
   H    6.620  24.000  26.760
   H    6.470  23.170  25.310
   H    6.170  24.920  25.440
   H    8.390  25.560  27.400
   H    8.170  26.510  26.040
   H    9.820  25.830  26.360
   H    11.050  25.830  23.800
   H    12.140  24.400  23.700
   H    11.310  24.780  25.140
   H    9.280  23.260  21.680
   H    11.020  23.390  21.740
   H    10.110  24.880  21.840
   H    11.220  22.440  24.580
   H    10.270  21.790  23.270
   H    10.290  19.060  24.230
   H    11.420  18.610  25.350
   H    10.130  15.500  25.750
   H    11.170  15.020  24.420
   H    11.860  15.970  25.720
   H    13.780  17.100  21.490
   H    14.330  14.310  22.600
   H    15.220  15.600  22.910
   H    15.860  12.720  21.220
   H    16.790  13.860  22.210
   H    17.220  13.550  20.560
   H    17.100  15.930  19.700
   H    15.830  17.000  20.360
   H    17.000  16.480  21.410
   H    11.920  12.700  20.370
   H    13.430  12.260  19.690
   H    13.380  13.100  21.270
   H    11.460  14.430  18.430
   H    12.730  13.690  17.650
   H    12.790  15.420  17.800
   H    11.630  15.160  20.860
   H    12.310  16.480  20.080
   H    9.180  17.560  22.710
   H    9.910  15.980  22.500
   H    8.640  16.300  23.770
  
