  239
chainlength_6ptma_50%rad_time_0.0005ps
 C    18.860  19.170  26.140
   C    17.390  19.580  25.810
   C    16.930  18.670  24.660
   C    17.480  21.030  25.320
   O    17.310  21.370  24.150
   O    17.920  21.860  26.300
   C    18.480  23.130  25.890
   C    17.410  24.190  25.660
   C    18.050  25.520  25.160
   C    18.170  25.430  23.610
   C    17.050  26.660  25.480
   N    19.450  25.700  25.690
   H    19.800  26.720  25.610
   C    19.730  25.110  27.030
   C    21.240  25.220  27.370
   C    18.960  25.780  28.190
   C    19.410  23.580  27.030
   C    16.560  19.410  27.130
   C    14.990  19.260  27.130
   C    14.370  20.420  26.350
   C    14.610  17.880  26.530
   O    13.760  17.720  25.660
   O    15.310  16.880  27.120
   C    14.920  15.500  26.870
   C    15.910  14.810  25.920
   C    16.970  13.920  26.620
   C    17.810  13.260  25.490
   C    17.980  14.810  27.400
   N    16.390  12.990  27.630
   O    16.510  11.610  27.260
   C    15.020  13.280  28.140
   C    13.850  12.660  27.340
   C    14.930  12.740  29.600
   C    14.810  14.810  28.220
   C    14.540  19.240  28.640
   C    13.070  19.520  29.200
   C    12.930  21.050  29.360
   C    13.140  18.790  30.560
   O    13.160  17.560  30.640
   O    13.310  19.620  31.630
   C    13.640  18.970  32.880
   C    12.420  18.330  33.550
   C    12.780  17.640  34.890
   C    13.510  16.310  34.580
   C    11.420  17.280  35.550
   N    13.520  18.580  35.790
   H    13.820  18.080  36.710
   C    14.600  19.430  35.210
   C    15.980  18.720  35.050
   C    14.820  20.650  36.150
   C    14.190  20.020  33.840
   C    11.890  18.960  28.290
   C    10.440  18.550  28.740
   C    10.470  17.460  29.850
   C    9.470  19.580  29.330
   O    8.250  19.420  29.290
   O    10.070  20.540  30.080
   C    9.200  21.300  30.960
   C    9.940  21.700  32.230
   C    10.130  23.220  32.480
   C    11.240  23.780  31.560
   C    10.700  23.370  33.920
   N    8.890  24.010  32.190
   O    8.260  24.530  33.370
   C    7.900  23.470  31.230
   C    6.690  22.750  31.880
   C    7.360  24.660  30.400
   C    8.570  22.480  30.240
   C    9.710  17.820  27.530
   C    9.330  18.460  26.150
   C    8.030  17.730  25.690
   C    8.860  19.940  26.250
   O    7.730  20.270  26.580
   O    9.820  20.820  25.850
   C    9.290  22.020  25.240
   C    9.110  23.160  26.230
   C    8.390  24.370  25.540
   C    6.860  24.150  25.700
   C    8.760  25.650  26.340
   N    8.670  24.400  24.060
   H    8.410  25.360  23.620
   C    10.020  23.910  23.620
   C    11.200  24.800  24.090
   C    10.080  23.830  22.070
   C    10.260  22.450  24.130
   C    10.430  18.310  25.030
   C    10.680  17.000  24.190
   C    10.960  15.780  25.080
   C    11.860  17.260  23.210
   O    12.030  18.330  22.630
   O    12.540  16.110  22.930
   C    13.400  16.090  21.750
   C    14.610  15.230  22.060
   C    15.490  14.930  20.820
   C    16.380  13.720  21.210
   C    16.420  16.140  20.590
   N    14.680  14.790  19.580
   O    15.340  13.950  18.610
   C    13.250  14.430  19.700
   C    12.970  13.040  20.310
   C    12.530  14.490  18.340
   C    12.570  15.550  20.570
   C    9.520  16.660  23.220
   H    18.920  18.110  26.400
   H    19.510  19.350  25.280
   H    19.260  19.730  26.980
   H    16.940  17.630  24.970
   H    17.590  18.750  23.800
   H    15.930  18.930  24.310
   H    19.080  22.980  24.990
   H    16.680  23.820  24.940
   H    16.850  24.350  26.580
   H    18.860  24.650  23.310
   H    18.530  26.360  23.160
   H    17.210  25.210  23.140
   H    16.060  26.420  25.100
   H    17.320  27.610  25.020
   H    16.970  26.830  26.550
   H    21.550  26.250  27.540
   H    21.480  24.660  28.280
   H    21.850  24.820  26.570
   H    17.880  25.620  28.130
   H    19.130  26.860  28.240
   H    19.280  25.390  29.160
   H    18.950  23.300  27.980
   H    20.320  22.990  26.930
   H    16.970  18.560  27.670
   H    16.810  20.260  27.770
   H    13.280  20.380  26.300
   H    14.690  20.450  25.310
   H    14.610  21.380  26.810
   H    13.940  15.480  26.380
   H    15.350  14.180  25.230
   H    16.410  15.560  25.300
   H    17.200  12.630  24.840
   H    18.270  14.020  24.850
   H    18.630  12.660  25.890
   H    18.780  14.210  27.830
   H    17.510  15.380  28.200
   H    18.430  15.530  26.720
   H    12.890  13.010  27.710
   H    13.900  12.870  26.270
   H    13.830  11.570  27.420
   H    14.970  11.650  29.620
   H    15.740  13.130  30.220
   H    13.990  13.030  30.070
   H    15.510  15.230  28.940
   H    13.840  15.040  28.650
   H    15.190  19.940  29.180
   H    14.860  18.280  29.030
   H    12.710  21.530  28.410
   H    12.170  21.330  30.090
   H    13.850  21.500  29.730
   H    14.420  18.230  32.680
   H    11.940  17.620  32.870
   H    11.660  19.110  33.700
   H    13.730  15.740  35.480
   H    14.450  16.450  34.050
   H    12.890  15.670  33.950
   H    10.870  18.180  35.820
   H    10.800  16.680  34.870
   H    11.540  16.680  36.450
   H    16.720  19.430  34.660
   H    15.940  17.880  34.360
   H    16.370  18.350  36.000
   H    13.880  21.180  36.330
   H    15.220  20.350  37.110
   H    15.530  21.360  35.720
   H    15.020  20.530  33.360
   H    13.440  20.800  33.960
   H    12.290  18.060  27.820
   H    11.760  19.690  27.490
   H    11.160  16.650  29.600
   H    9.500  17.010  30.000
   H    10.720  17.880  30.830
   H    8.410  20.630  31.300
   H    10.910  21.200  32.260
   H    9.390  21.310  33.090
   H    12.170  23.230  31.700
   H    11.450  24.820  31.800
   H    11.020  23.720  30.500
   H    10.910  24.410  34.170
   H    10.020  22.980  34.670
   H    11.640  22.840  34.030
   H    6.080  22.270  31.120
   H    7.010  21.990  32.590
   H    6.020  23.440  32.400
   H    8.170  25.190  29.920
   H    6.670  24.310  29.630
   H    6.820  25.390  31.010
   H    9.310  22.980  29.610
   H    7.830  22.120  29.530
   H    10.310  16.930  27.340
   H    8.790  17.410  27.950
   H    8.170  16.650  25.680
   H    7.720  18.070  24.710
   H    7.210  17.900  26.380
   H    8.330  21.790  24.780
   H    10.090  23.450  26.620
   H    8.530  22.820  27.090
   H    6.590  24.050  26.750
   H    6.520  23.240  25.210
   H    6.280  24.980  25.320
   H    8.540  25.510  27.390
   H    8.170  26.510  26.020
   H    9.820  25.900  26.240
   H    11.080  25.840  23.780
   H    12.130  24.450  23.650
   H    11.340  24.770  25.170
   H    9.260  23.240  21.670
   H    11.010  23.360  21.740
   H    10.060  24.820  21.620
   H    11.280  22.350  24.510
   H    10.170  21.730  23.320
   H    10.240  19.080  24.280
   H    11.390  18.610  25.450
   H    10.090  15.510  25.690
   H    11.220  14.910  24.490
   H    11.800  15.980  25.760
   H    13.740  17.100  21.520
   H    14.280  14.320  22.550
   H    15.190  15.710  22.850
   H    15.800  12.800  21.320
   H    16.870  13.900  22.160
   H    17.170  13.530  20.490
   H    17.130  15.960  19.770
   H    15.860  17.040  20.330
   H    17.000  16.380  21.470
   H    11.900  12.830  20.350
   H    13.420  12.240  19.710
   H    13.350  12.940  21.320
   H    11.450  14.410  18.460
   H    12.820  13.680  17.680
   H    12.730  15.430  17.810
   H    11.600  15.190  20.910
   H    12.340  16.420  19.960
   H    9.140  17.560  22.740
   H    9.860  16.000  22.430
   H    8.690  16.150  23.710
  
