  239
chainlength_6ptma_time_16.66%rad_0.0ps
 C    18.860  19.170  26.130
   C    17.390  19.580  25.810
   C    16.930  18.670  24.660
   C    17.480  21.030  25.320
   O    17.310  21.370  24.150
   O    17.920  21.860  26.300
   C    18.480  23.130  25.890
   C    17.410  24.190  25.660
   C    18.050  25.520  25.160
   C    18.170  25.430  23.610
   C    17.050  26.660  25.480
   N    19.450  25.690  25.690
   H    19.790  26.720  25.600
   C    19.730  25.110  27.030
   C    21.240  25.220  27.370
   C    18.950  25.780  28.190
   C    19.410  23.580  27.030
   C    16.560  19.410  27.130
   C    14.990  19.260  27.130
   C    14.370  20.420  26.350
   C    14.610  17.880  26.530
   O    13.760  17.720  25.660
   O    15.310  16.880  27.120
   C    14.920  15.500  26.870
   C    15.910  14.810  25.930
   C    16.970  13.920  26.620
   C    17.810  13.260  25.490
   C    17.980  14.810  27.400
   N    16.390  12.970  27.620
   H    16.480  11.920  27.340
   C    15.020  13.280  28.140
   C    13.850  12.660  27.340
   C    14.930  12.740  29.600
   C    14.810  14.810  28.220
   C    14.540  19.240  28.640
   C    13.070  19.520  29.200
   C    12.930  21.050  29.360
   C    13.140  18.790  30.560
   O    13.160  17.560  30.640
   O    13.310  19.620  31.630
   C    13.640  18.970  32.880
   C    12.420  18.340  33.550
   C    12.780  17.640  34.890
   C    13.510  16.310  34.580
   C    11.420  17.280  35.550
   N    13.520  18.580  35.790
   H    13.830  18.100  36.710
   C    14.600  19.430  35.210
   C    15.980  18.720  35.050
   C    14.820  20.650  36.150
   C    14.190  20.020  33.840
   C    11.890  18.960  28.290
   C    10.440  18.550  28.740
   C    10.480  17.460  29.850
   C    9.470  19.580  29.330
   O    8.250  19.420  29.290
   O    10.070  20.540  30.080
   C    9.200  21.300  30.960
   C    9.950  21.700  32.230
   C    10.130  23.220  32.480
   C    11.240  23.780  31.560
   C    10.700  23.370  33.920
   N    8.890  24.020  32.210
   H    8.400  24.410  33.100
   C    7.900  23.470  31.230
   C    6.690  22.750  31.880
   C    7.360  24.660  30.400
   C    8.570  22.480  30.240
   C    9.710  17.820  27.530
   C    9.330  18.460  26.150
   C    8.030  17.730  25.690
   C    8.860  19.940  26.250
   O    7.730  20.270  26.580
   O    9.820  20.820  25.850
   C    9.290  22.020  25.240
   C    9.110  23.160  26.230
   C    8.390  24.370  25.540
   C    6.860  24.150  25.700
   C    8.760  25.650  26.330
   N    8.670  24.400  24.060
   H    8.420  25.360  23.620
   C    10.020  23.910  23.620
   C    11.200  24.800  24.090
   C    10.080  23.830  22.070
   C    10.260  22.450  24.130
   C    10.430  18.310  25.030
   C    10.680  17.000  24.190
   C    10.960  15.780  25.080
   C    11.860  17.260  23.210
   O    12.030  18.330  22.630
   O    12.540  16.110  22.930
   C    13.400  16.090  21.750
   C    14.610  15.230  22.060
   C    15.490  14.930  20.820
   C    16.380  13.720  21.210
   C    16.420  16.140  20.590
   N    14.680  14.790  19.580
   O    15.340  13.950  18.610
   C    13.250  14.440  19.710
   C    12.970  13.040  20.310
   C    12.530  14.490  18.340
   C    12.570  15.550  20.570
   C    9.520  16.660  23.220
   H    18.920  18.110  26.390
   H    19.510  19.350  25.270
   H    19.260  19.740  26.970
   H    16.940  17.620  24.960
   H    17.590  18.760  23.790
   H    15.930  18.920  24.310
   H    19.070  22.970  24.990
   H    16.670  23.820  24.950
   H    16.850  24.340  26.590
   H    18.850  24.640  23.300
   H    18.530  26.360  23.170
   H    17.210  25.210  23.150
   H    16.060  26.410  25.100
   H    17.340  27.600  25.010
   H    16.950  26.840  26.550
   H    21.550  26.250  27.550
   H    21.480  24.650  28.270
   H    21.860  24.820  26.560
   H    17.880  25.610  28.130
   H    19.120  26.860  28.230
   H    19.280  25.380  29.150
   H    18.960  23.300  27.980
   H    20.320  22.980  26.950
   H    16.970  18.550  27.670
   H    16.800  20.260  27.770
   H    13.280  20.350  26.300
   H    14.700  20.450  25.310
   H    14.630  21.380  26.810
   H    13.940  15.480  26.380
   H    15.350  14.190  25.240
   H    16.410  15.550  25.310
   H    17.200  12.630  24.850
   H    18.270  14.010  24.850
   H    18.620  12.650  25.890
   H    18.780  14.210  27.840
   H    17.520  15.380  28.210
   H    18.440  15.530  26.730
   H    12.890  13.020  27.710
   H    13.890  12.900  26.280
   H    13.820  11.570  27.420
   H    14.980  11.650  29.630
   H    15.740  13.130  30.220
   H    13.990  13.030  30.070
   H    15.510  15.250  28.940
   H    13.830  15.040  28.650
   H    15.200  19.930  29.180
   H    14.860  18.270  29.030
   H    12.700  21.540  28.410
   H    12.160  21.320  30.090
   H    13.850  21.490  29.750
   H    14.420  18.230  32.680
   H    11.940  17.630  32.880
   H    11.670  19.110  33.710
   H    13.720  15.730  35.480
   H    14.450  16.460  34.050
   H    12.890  15.680  33.930
   H    10.860  18.180  35.820
   H    10.800  16.690  34.870
   H    11.550  16.680  36.450
   H    16.720  19.420  34.660
   H    15.940  17.880  34.350
   H    16.370  18.350  36.000
   H    13.890  21.190  36.320
   H    15.210  20.350  37.120
   H    15.530  21.350  35.710
   H    15.020  20.540  33.360
   H    13.430  20.800  33.970
   H    12.300  18.060  27.820
   H    11.750  19.690  27.490
   H    11.170  16.650  29.600
   H    9.500  17.010  29.990
   H    10.730  17.890  30.820
   H    8.400  20.630  31.290
   H    10.920  21.200  32.270
   H    9.390  21.290  33.070
   H    12.170  23.230  31.700
   H    11.450  24.830  31.790
   H    11.000  23.730  30.500
   H    10.910  24.410  34.170
   H    10.020  22.970  34.680
   H    11.640  22.830  34.020
   H    6.070  22.260  31.120
   H    7.000  21.990  32.590
   H    6.030  23.440  32.410
   H    8.170  25.190  29.910
   H    6.680  24.310  29.630
   H    6.810  25.370  31.020
   H    9.300  22.980  29.600
   H    7.830  22.110  29.530
   H    10.300  16.930  27.320
   H    8.790  17.410  27.950
   H    8.160  16.650  25.680
   H    7.710  18.070  24.710
   H    7.200  17.910  26.380
   H    8.340  21.780  24.760
   H    10.090  23.450  26.610
   H    8.550  22.820  27.100
   H    6.590  24.050  26.750
   H    6.520  23.250  25.190
   H    6.290  24.990  25.300
   H    8.560  25.500  27.390
   H    8.170  26.510  26.020
   H    9.810  25.910  26.230
   H    11.080  25.840  23.780
   H    12.130  24.450  23.640
   H    11.340  24.770  25.170
   H    9.250  23.240  21.670
   H    11.010  23.360  21.740
   H    10.050  24.810  21.600
   H    11.280  22.340  24.500
   H    10.160  21.720  23.320
   H    10.230  19.080  24.280
   H    11.380  18.610  25.470
   H    10.090  15.510  25.680
   H    11.220  14.890  24.500
   H    11.790  15.980  25.760
   H    13.740  17.100  21.520
   H    14.270  14.320  22.550
   H    15.190  15.720  22.840
   H    15.790  12.810  21.330
   H    16.880  13.910  22.160
   H    17.160  13.530  20.480
   H    17.130  15.960  19.780
   H    15.860  17.040  20.330
   H    17.000  16.370  21.480
   H    11.900  12.850  20.350
   H    13.420  12.250  19.710
   H    13.350  12.920  21.330
   H    11.450  14.410  18.470
   H    12.830  13.670  17.680
   H    12.720  15.430  17.820
   H    11.600  15.190  20.920
   H    12.340  16.410  19.940
   H    9.130  17.560  22.740
   H    9.850  16.000  22.420
   H    8.700  16.140  23.710
  
