  239
chainlength_6ptma_time_16.66%rad_0.0005ps
 C    18.860  19.170  26.130
   C    17.400  19.580  25.810
   C    16.930  18.670  24.660
   C    17.480  21.030  25.320
   O    17.310  21.370  24.150
   O    17.920  21.860  26.300
   C    18.480  23.130  25.890
   C    17.410  24.190  25.660
   C    18.050  25.520  25.160
   C    18.170  25.430  23.610
   C    17.050  26.660  25.480
   N    19.450  25.690  25.690
   H    19.790  26.720  25.600
   C    19.730  25.110  27.030
   C    21.240  25.220  27.370
   C    18.950  25.790  28.190
   C    19.410  23.580  27.030
   C    16.560  19.410  27.130
   C    14.990  19.260  27.130
   C    14.370  20.420  26.350
   C    14.610  17.880  26.530
   O    13.760  17.720  25.660
   O    15.310  16.880  27.120
   C    14.920  15.500  26.870
   C    15.910  14.810  25.930
   C    16.970  13.920  26.620
   C    17.810  13.260  25.490
   C    17.980  14.810  27.400
   N    16.390  12.970  27.630
   H    16.490  11.920  27.350
   C    15.020  13.280  28.140
   C    13.860  12.660  27.340
   C    14.930  12.740  29.610
   C    14.810  14.810  28.220
   C    14.540  19.240  28.640
   C    13.070  19.520  29.200
   C    12.930  21.050  29.360
   C    13.140  18.790  30.560
   O    13.160  17.560  30.640
   O    13.310  19.620  31.630
   C    13.640  18.970  32.880
   C    12.420  18.340  33.550
   C    12.780  17.640  34.890
   C    13.510  16.310  34.580
   C    11.420  17.280  35.550
   N    13.520  18.580  35.790
   H    13.820  18.100  36.720
   C    14.600  19.430  35.210
   C    15.990  18.720  35.050
   C    14.820  20.650  36.150
   C    14.180  20.020  33.840
   C    11.890  18.960  28.290
   C    10.440  18.550  28.740
   C    10.480  17.450  29.850
   C    9.470  19.580  29.330
   O    8.250  19.420  29.290
   O    10.070  20.540  30.080
   C    9.200  21.300  30.960
   C    9.950  21.700  32.230
   C    10.130  23.220  32.480
   C    11.240  23.780  31.560
   C    10.700  23.370  33.920
   N    8.890  24.020  32.210
   H    8.410  24.420  33.110
   C    7.910  23.460  31.230
   C    6.690  22.750  31.880
   C    7.370  24.670  30.400
   C    8.570  22.480  30.240
   C    9.710  17.820  27.530
   C    9.330  18.450  26.150
   C    8.030  17.730  25.690
   C    8.860  19.940  26.250
   O    7.730  20.270  26.580
   O    9.820  20.820  25.850
   C    9.290  22.020  25.240
   C    9.110  23.160  26.230
   C    8.390  24.370  25.550
   C    6.860  24.150  25.700
   C    8.760  25.650  26.330
   N    8.670  24.400  24.060
   H    8.410  25.360  23.610
   C    10.020  23.910  23.620
   C    11.200  24.800  24.090
   C    10.090  23.830  22.070
   C    10.260  22.450  24.130
   C    10.430  18.310  25.030
   C    10.680  17.000  24.190
   C    10.960  15.780  25.080
   C    11.860  17.250  23.210
   O    12.030  18.330  22.630
   O    12.540  16.110  22.930
   C    13.400  16.090  21.750
   C    14.610  15.230  22.060
   C    15.490  14.930  20.820
   C    16.380  13.720  21.210
   C    16.420  16.140  20.590
   N    14.680  14.790  19.580
   O    15.340  13.950  18.610
   C    13.250  14.440  19.710
   C    12.970  13.040  20.310
   C    12.530  14.490  18.340
   C    12.570  15.550  20.560
   C    9.520  16.660  23.220
   H    18.920  18.110  26.380
   H    19.500  19.370  25.280
   H    19.240  19.730  26.980
   H    16.950  17.620  24.950
   H    17.590  18.760  23.800
   H    15.930  18.910  24.300
   H    19.070  22.970  24.990
   H    16.680  23.820  24.940
   H    16.850  24.340  26.580
   H    18.850  24.640  23.300
   H    18.540  26.360  23.170
   H    17.210  25.200  23.160
   H    16.060  26.410  25.110
   H    17.350  27.600  25.010
   H    16.950  26.850  26.550
   H    21.560  26.240  27.560
   H    21.470  24.660  28.270
   H    21.860  24.830  26.560
   H    17.880  25.590  28.120
   H    19.130  26.860  28.240
   H    19.270  25.410  29.160
   H    18.950  23.290  27.970
   H    20.320  22.980  26.970
   H    16.980  18.560  27.660
   H    16.810  20.260  27.760
   H    13.290  20.340  26.310
   H    14.690  20.440  25.310
   H    14.630  21.380  26.800
   H    13.940  15.490  26.390
   H    15.330  14.190  25.240
   H    16.400  15.560  25.310
   H    17.200  12.610  24.860
   H    18.250  14.010  24.850
   H    18.620  12.650  25.890
   H    18.780  14.210  27.840
   H    17.500  15.380  28.200
   H    18.430  15.530  26.720
   H    12.900  13.030  27.710
   H    13.890  12.900  26.270
   H    13.800  11.580  27.430
   H    14.970  11.650  29.630
   H    15.740  13.130  30.230
   H    13.990  13.040  30.070
   H    15.500  15.240  28.940
   H    13.830  15.030  28.650
   H    15.210  19.920  29.160
   H    14.860  18.270  29.030
   H    12.710  21.540  28.410
   H    12.160  21.310  30.080
   H    13.840  21.500  29.750
   H    14.430  18.240  32.670
   H    11.950  17.620  32.880
   H    11.670  19.120  33.710
   H    13.730  15.730  35.480
   H    14.460  16.460  34.060
   H    12.880  15.690  33.940
   H    10.860  18.180  35.820
   H    10.800  16.700  34.870
   H    11.540  16.690  36.460
   H    16.710  19.430  34.660
   H    15.940  17.870  34.370
   H    16.370  18.350  36.000
   H    13.900  21.200  36.330
   H    15.210  20.340  37.120
   H    15.540  21.360  35.720
   H    15.020  20.530  33.360
   H    13.440  20.810  33.970
   H    12.290  18.050  27.830
   H    11.760  19.670  27.480
   H    11.180  16.660  29.600
   H    9.480  17.030  29.970
   H    10.740  17.890  30.820
   H    8.400  20.630  31.290
   H    10.920  21.200  32.250
   H    9.380  21.310  33.080
   H    12.160  23.230  31.700
   H    11.460  24.820  31.800
   H    11.000  23.740  30.500
   H    10.900  24.410  34.180
   H    10.030  22.970  34.680
   H    11.650  22.850  34.030
   H    6.090  22.260  31.110
   H    6.990  21.980  32.590
   H    6.040  23.440  32.420
   H    8.190  25.190  29.910
   H    6.680  24.320  29.620
   H    6.800  25.370  31.000
   H    9.310  22.960  29.600
   H    7.840  22.110  29.520
   H    10.300  16.930  27.320
   H    8.780  17.410  27.940
   H    8.170  16.650  25.690
   H    7.710  18.050  24.700
   H    7.200  17.910  26.390
   H    8.330  21.790  24.770
   H    10.090  23.440  26.600
   H    8.560  22.830  27.110
   H    6.600  24.090  26.760
   H    6.530  23.240  25.200
   H    6.280  24.990  25.320
   H    8.570  25.510  27.400
   H    8.170  26.510  26.010
   H    9.800  25.930  26.230
   H    11.080  25.840  23.780
   H    12.130  24.450  23.630
   H    11.330  24.780  25.170
   H    9.260  23.240  21.670
   H    11.010  23.340  21.740
   H    10.040  24.810  21.590
   H    11.280  22.320  24.510
   H    10.150  21.720  23.330
   H    10.230  19.080  24.280
   H    11.370  18.630  25.470
   H    10.090  15.520  25.680
   H    11.220  14.890  24.500
   H    11.780  15.970  25.760
   H    13.730  17.100  21.530
   H    14.280  14.310  22.550
   H    15.190  15.730  22.830
   H    15.800  12.800  21.340
   H    16.890  13.900  22.160
   H    17.160  13.530  20.480
   H    17.130  15.970  19.780
   H    15.870  17.050  20.340
   H    17.010  16.370  21.480
   H    11.900  12.840  20.350
   H    13.430  12.260  19.700
   H    13.350  12.930  21.330
   H    11.450  14.430  18.480
   H    12.840  13.680  17.690
   H    12.700  15.440  17.830
   H    11.610  15.180  20.910
   H    12.340  16.420  19.940
   H    9.130  17.560  22.740
   H    9.860  16.000  22.420
   H    8.700  16.140  23.720
  
