  239
chainlength_6ptma_time_16.66%rad_15ns
 C    24.730  15.100  26.520
   C    25.560  14.750  25.260
   C    24.780  15.540  24.210
   C    25.550  13.250  24.850
   O    26.400  12.760  24.120
   O    24.480  12.620  25.340
   C    24.360  11.230  25.300
   C    23.350  10.940  26.420
   C    23.320  9.420  26.700
   C    24.220  9.140  27.880
   C    21.830  9.030  27.110
   N    23.690  8.610  25.510
   H    24.000  7.590  25.750
   C    23.570  9.150  24.090
   C    24.620  8.300  23.380
   C    22.200  8.850  23.560
   C    23.900  10.630  24.050
   C    26.980  15.430  25.120
   C    28.080  15.310  26.240
   C    27.660  16.140  27.530
   C    28.140  13.790  26.570
   O    27.290  13.210  27.270
   O    29.110  13.130  25.870
   C    29.020  11.730  25.820
   C    29.530  11.320  24.460
   C    29.540  9.790  24.300
   C    28.250  9.250  23.680
   C    30.600  9.390  23.320
   N    29.780  9.020  25.580
   H    29.980  7.950  25.540
   C    29.550  9.570  26.920
   C    28.110  9.210  27.420
   C    30.520  8.830  27.930
   C    29.800  11.060  26.970
   C    29.420  15.820  25.560
   C    30.800  16.090  26.280
   C    30.640  17.480  27.030
   C    31.960  16.230  25.190
   O    32.260  15.230  24.520
   O    32.650  17.420  25.120
   C    33.690  17.600  24.160
   C    35.120  17.440  24.810
   C    36.170  17.710  23.830
   C    36.370  16.610  22.760
   C    37.460  17.810  24.610
   N    35.920  18.940  23.030
   H    36.790  19.500  22.700
   C    34.640  19.380  22.670
   C    34.320  18.870  21.280
   C    34.750  20.820  22.640
   C    33.610  19.010  23.720
   C    31.100  14.970  27.320
   C    32.360  14.840  28.280
   C    33.680  15.440  27.620
   C    32.150  15.750  29.620
   O    33.110  16.290  30.120
   O    30.860  16.150  29.840
   C    30.560  17.020  30.910
   C    30.640  18.460  30.430
   C    30.900  19.260  31.690
   C    30.560  20.660  31.430
   C    32.400  19.310  32.120
   N    30.070  18.730  32.790
   H    30.390  18.870  33.830
   C    28.860  17.890  32.550
   C    28.470  17.160  33.870
   C    27.590  18.860  32.180
   C    29.110  16.860  31.370
   C    32.570  13.270  28.530
   C    32.990  12.680  29.940
   C    34.410  13.150  30.460
   C    32.000  12.980  31.060
   O    32.320  13.290  32.230
   O    30.780  12.800  30.640
   C    29.620  12.980  31.440
   C    28.390  13.190  30.500
   C    27.000  13.060  31.270
   C    26.280  14.470  31.330
   C    26.010  12.060  30.620
   N    27.140  12.580  32.700
   H    26.300  12.830  33.340
   C    28.270  11.780  33.190
   C    27.640  10.430  33.410
   C    28.770  12.450  34.480
   C    29.410  11.750  32.170
   C    32.940  11.130  29.770
   C    33.590  10.070  30.780
   C    32.840  10.150  32.180
   C    35.160  10.220  30.970
   O    35.670  10.390  32.120
   O    35.790  10.230  29.800
   C    37.220  10.260  29.860
   C    37.720  8.820  29.440
   C    39.280  8.800  29.650
   C    39.810  7.470  29.070
   C    39.600  8.850  31.160
   N    40.010  9.940  29.010
   O    41.220  9.790  28.750
   C    39.290  11.230  28.590
   C    39.700  11.520  27.190
   C    39.870  12.390  29.540
   C    37.700  11.200  28.750
   C    33.390  8.600  30.250
   H    24.890  16.130  26.840
   H    23.670  14.930  26.300
   H    24.880  14.510  27.430
   H    25.250  15.710  23.240
   H    24.350  16.520  24.400
   H    23.820  15.060  23.990
   H    25.320  10.770  25.510
   H    23.670  11.540  27.270
   H    22.390  11.430  26.280
   H    23.760  9.660  28.720
   H    25.250  9.430  27.660
   H    24.200  8.070  28.120
   H    21.500  9.880  27.700
   H    21.730  8.210  27.830
   H    21.220  8.860  26.220
   H    25.540  8.260  23.960
   H    24.340  7.260  23.200
   H    24.820  8.590  22.350
   H    22.240  8.740  22.480
   H    21.490  9.640  23.810
   H    21.720  7.960  23.990
   H    23.100  11.230  23.610
   H    24.710  10.770  23.330
   H    27.440  15.080  24.200
   H    26.850  16.510  24.990
   H    26.810  15.730  28.070
   H    27.410  17.190  27.390
   H    28.480  16.100  28.240
   H    27.980  11.430  25.720
   H    28.910  11.770  23.670
   H    30.540  11.700  24.370
   H    27.400  9.150  24.350
   H    27.880  9.890  22.880
   H    28.350  8.280  23.190
   H    31.570  9.860  23.460
   H    30.330  9.760  22.330
   H    30.790  8.320  23.260
   H    27.370  9.710  26.790
   H    27.890  8.150  27.470
   H    27.880  9.500  28.450
   H    31.470  9.360  27.800
   H    30.190  9.030  28.940
   H    30.520  7.750  27.770
   H    30.830  11.390  26.850
   H    29.440  11.570  27.860
   H    29.090  16.770  25.130
   H    29.610  15.140  24.730
   H    29.930  17.430  27.860
   H    31.550  17.810  27.530
   H    30.400  18.330  26.400
   H    33.590  16.980  23.270
   H    35.190  16.440  25.230
   H    35.100  18.050  25.710
   H    36.960  16.970  21.920
   H    35.430  16.380  22.260
   H    36.700  15.660  23.180
   H    37.220  18.260  25.580
   H    37.840  16.810  24.830
   H    38.290  18.350  24.150
   H    35.290  18.830  20.780
   H    33.580  19.500  20.780
   H    33.790  17.920  21.360
   H    35.060  21.060  23.660
   H    35.500  21.250  21.980
   H    33.790  21.240  22.360
   H    32.660  19.350  23.310
   H    33.780  19.640  24.590
   H    31.230  14.050  26.760
   H    30.210  14.880  27.930
   H    34.570  15.440  28.270
   H    33.390  16.470  27.460
   H    33.900  14.970  26.660
   H    31.340  16.910  31.660
   H    29.780  18.780  29.840
   H    31.510  18.620  29.800
   H    31.010  21.390  32.090
   H    29.510  20.940  31.470
   H    31.000  20.980  30.480
   H    33.040  19.900  31.460
   H    32.460  19.800  33.090
   H    32.790  18.310  32.300
   H    28.540  17.900  34.680
   H    27.470  16.730  33.840
   H    29.180  16.370  34.120
   H    27.840  19.410  31.270
   H    26.660  18.300  32.160
   H    27.700  19.490  33.060
   H    28.390  17.030  30.570
   H    28.990  15.820  31.660
   H    31.590  12.850  28.300
   H    33.320  12.990  27.790
   H    34.710  12.740  31.430
   H    34.290  14.220  30.570
   H    35.120  12.990  29.660
   H    29.690  13.880  32.050
   H    28.330  12.390  29.760
   H    28.470  14.180  30.060
   H    25.960  14.730  30.320
   H    27.000  15.170  31.760
   H    25.430  14.440  32.010
   H    25.650  12.440  29.660
   H    25.160  11.900  31.280
   H    26.470  11.110  30.390
   H    27.050  10.410  34.330
   H    28.420  9.690  33.610
   H    27.230  9.980  32.510
   H    28.120  12.500  35.340
   H    29.110  13.480  34.340
   H    29.600  11.880  34.900
   H    29.380  10.900  31.490
   H    30.250  11.490  32.810
   H    31.910  10.800  29.650
   H    33.450  10.850  28.850
   H    31.760  9.960  32.200
   H    33.080  9.380  32.910
   H    33.150  11.040  32.720
   H    37.510  10.610  30.850
   H    37.520  8.630  28.390
   H    37.140  8.140  30.060
   H    40.810  7.230  29.430
   H    39.880  7.430  27.980
   H    39.200  6.630  29.400
   H    39.040  8.040  31.630
   H    40.640  8.510  31.140
   H    39.480  9.720  31.800
   H    39.140  12.330  26.710
   H    40.750  11.790  27.070
   H    39.470  10.640  26.590
   H    39.320  12.350  30.480
   H    39.800  13.340  29.000
   H    40.940  12.210  29.600
   H    37.300  10.920  27.780
   H    37.510  12.260  28.910
   H    33.930  8.500  29.310
   H    33.920  7.880  30.860
   H    32.330  8.330  30.170
  
