  239
chainlength_6ptma_time_16.66%rad_5ps
 C    17.590  20.710  28.440
   C    16.680  21.910  28.170
   C    16.220  21.840  26.660
   C    17.540  23.230  28.330
   O    17.450  24.260  27.620
   O    18.370  23.160  29.360
   C    18.930  24.370  29.890
   C    17.900  24.960  30.870
   C    18.360  26.310  31.250
   C    18.070  27.270  30.130
   C    17.560  26.760  32.380
   N    19.750  26.300  31.730
   H    20.000  27.000  32.530
   C    20.770  25.260  31.270
   C    21.670  25.930  30.220
   C    21.590  24.900  32.560
   C    20.140  24.010  30.690
   C    15.520  21.920  29.290
   C    14.030  21.540  28.860
   C    13.480  22.600  27.970
   C    14.090  20.080  28.240
   O    13.590  19.780  27.160
   O    14.860  19.190  28.980
   C    15.120  17.860  28.620
   C    15.990  17.420  29.750
   C    16.550  16.090  29.450
   C    17.940  16.210  28.650
   C    16.760  15.260  30.730
   N    15.660  15.330  28.540
   H    16.060  14.430  28.080
   C    14.160  15.540  28.560
   C    13.750  15.120  27.100
   C    13.390  14.630  29.500
   C    13.860  17.000  28.760
   C    13.160  21.480  30.220
   C    11.600  21.090  30.430
   C    10.760  22.340  30.820
   C    11.520  20.180  31.710
   O    12.170  19.130  31.770
   O    10.670  20.590  32.640
   C    10.790  20.420  34.070
   C    9.350  20.370  34.550
   C    9.200  20.140  36.070
   C    8.750  18.700  36.330
   C    8.110  21.130  36.650
   N    10.470  20.370  36.720
   H    10.590  19.880  37.680
   C    11.610  21.240  36.320
   C    12.890  20.410  36.560
   C    11.620  22.530  37.180
   C    11.390  21.620  34.850
   C    11.000  20.300  29.240
   C    9.660  19.470  29.100
   C    9.620  18.220  30.040
   C    8.390  20.320  29.400
   O    7.470  19.850  30.100
   O    8.430  21.570  29.040
   C    7.300  22.490  29.240
   C    6.960  22.750  30.640
   C    5.900  23.770  30.780
   C    5.820  24.230  32.190
   C    4.580  23.060  30.400
   N    6.150  24.970  29.900
   H    5.630  25.890  30.150
   C    7.050  24.900  28.680
   C    6.210  24.790  27.430
   C    7.810  26.250  28.620
   C    7.990  23.770  28.770
   C    9.610  18.910  27.640
   C    8.290  18.770  26.680
   C    6.970  18.220  27.340
   C    8.120  20.260  26.170
   O    7.160  20.970  26.440
   O    9.180  20.630  25.390
   C    9.140  21.870  24.720
   C    10.410  22.630  25.060
   C    10.350  24.060  24.470
   C    10.190  25.060  25.600
   C    11.540  24.360  23.550
   N    9.140  24.210  23.590
   H    8.540  25.120  23.650
   C    8.660  23.140  22.670
   C    9.270  23.340  21.280
   C    7.120  23.340  22.420
   C    8.950  21.720  23.220
   C    8.710  17.870  25.490
   C    7.710  17.610  24.290
   C    7.120  16.190  24.550
   C    8.610  17.530  23.020
   O    8.450  18.170  22.010
   O    9.410  16.510  23.140
   C    10.020  15.930  22.030
   C    11.360  15.370  22.530
   C    12.220  14.730  21.430
   C    13.400  13.940  22.070
   C    12.830  15.720  20.490
   N    11.350  13.780  20.610
   O    11.940  12.890  19.970
   C    9.850  13.660  20.870
   C    9.600  12.220  21.400
   C    9.140  13.560  19.500
   C    9.200  14.670  21.830
   C    6.570  18.700  23.980
   H    17.190  19.840  27.920
   H    18.570  20.830  27.970
   H    17.700  20.550  29.510
   H    15.680  20.940  26.350
   H    17.130  21.670  26.070
   H    15.710  22.760  26.410
   H    19.250  25.060  29.120
   H    16.930  24.940  30.380
   H    17.790  24.300  31.730
   H    18.680  27.150  29.230
   H    18.270  28.280  30.480
   H    17.030  27.150  29.820
   H    17.700  26.070  33.210
   H    16.500  26.910  32.140
   H    17.940  27.750  32.640
   H    21.340  26.040  29.190
   H    21.950  26.920  30.560
   H    22.620  25.390  30.120
   H    21.000  24.610  33.430
   H    22.290  25.680  32.860
   H    22.200  24.000  32.480
   H    19.850  23.340  31.490
   H    20.770  23.470  29.990
   H    15.860  21.280  30.110
   H    15.420  22.890  29.780
   H    14.190  23.400  27.760
   H    12.610  23.090  28.430
   H    13.190  22.270  26.970
   H    15.590  17.820  27.640
   H    16.780  18.160  29.750
   H    15.400  17.510  30.660
   H    17.770  16.830  27.770
   H    18.700  16.680  29.270
   H    18.440  15.260  28.500
   H    17.440  15.640  31.500
   H    17.150  14.270  30.520
   H    15.790  15.100  31.200
   H    14.420  15.660  26.430
   H    14.060  14.110  26.830
   H    12.710  15.310  26.840
   H    13.470  13.580  29.200
   H    13.760  14.590  30.520
   H    12.330  14.900  29.530
   H    13.420  17.210  29.740
   H    13.180  17.310  27.960
   H    13.190  22.440  30.730
   H    13.750  20.840  30.870
   H    9.770  22.060  31.160
   H    11.290  22.940  31.560
   H    10.680  22.980  29.940
   H    11.320  19.490  34.260
   H    8.840  19.600  33.970
   H    8.890  21.320  34.310
   H    7.880  18.520  35.690
   H    8.560  18.460  37.370
   H    9.580  18.080  35.980
   H    8.440  22.150  36.490
   H    7.180  21.020  36.090
   H    7.960  20.920  37.710
   H    13.380  20.650  37.500
   H    13.660  20.590  35.800
   H    12.750  19.350  36.380
   H    10.830  23.250  36.990
   H    11.520  22.210  38.210
   H    12.600  22.990  37.040
   H    12.350  21.860  34.380
   H    10.750  22.490  34.680
   H    11.670  19.490  28.960
   H    11.060  20.990  28.400
   H    10.450  17.530  29.860
   H    8.670  17.700  29.890
   H    9.690  18.440  31.110
   H    6.490  22.180  28.580
   H    7.860  23.070  31.170
   H    6.610  21.820  31.100
   H    6.680  24.850  32.440
   H    5.800  23.410  32.910
   H    4.980  24.900  32.370
   H    4.510  22.150  31.010
   H    3.630  23.520  30.660
   H    4.500  22.850  29.330
   H    6.790  25.260  26.630
   H    5.970  23.750  27.220
   H    5.270  25.330  27.540
   H    8.660  26.320  29.300
   H    8.380  26.410  27.700
   H    7.090  27.050  28.810
   H    8.700  24.080  29.530
   H    8.510  23.640  27.820
   H    10.300  19.500  27.040
   H    10.200  18.000  27.700
   H    7.160  17.610  28.220
   H    6.240  17.770  26.660
   H    6.380  19.040  27.760
   H    8.310  22.460  25.090
   H    11.260  22.100  24.620
   H    10.620  22.640  26.130
   H    10.800  24.870  26.480
   H    9.200  25.030  26.060
   H    10.440  26.050  25.240
   H    11.660  23.690  22.690
   H    12.460  24.360  24.130
   H    11.480  25.370  23.160
   H    8.520  23.090  20.530
   H    10.160  22.740  21.120
   H    9.420  24.400  21.070
   H    6.730  22.570  21.750
   H    6.990  24.300  21.920
   H    6.520  23.280  23.330
   H    9.850  21.350  22.720
   H    8.180  20.970  23.000
   H    9.670  18.200  25.090
   H    8.880  16.900  25.950
   H    6.290  16.030  25.250
   H    6.790  15.740  23.620
   H    7.840  15.450  24.910
   H    10.050  16.490  21.100
   H    11.240  14.720  23.400
   H    12.000  16.160  22.930
   H    14.070  14.480  22.740
   H    13.930  13.520  21.210
   H    12.920  13.150  22.650
   H    13.490  16.410  21.010
   H    13.350  15.250  19.650
   H    12.000  16.320  20.120
   H    8.650  12.160  21.940
   H    9.650  11.390  20.700
   H    10.380  11.970  22.110
   H    8.060  13.400  19.520
   H    9.600  12.740  18.950
   H    9.330  14.500  18.980
   H    8.950  14.260  22.800
   H    8.200  14.890  21.470
   H    5.840  18.400  23.230
   H    6.020  18.940  24.880
   H    6.950  19.640  23.570
  
