  239
chainlength_6ptma_time_16.66%rad_5000ps
 C    22.300  15.780  25.680
   C    23.270  14.670  26.220
   C    23.340  14.980  27.740
   C    24.810  14.820  25.780
   O    25.610  13.980  26.050
   O    25.060  16.010  25.150
   C    26.380  16.360  24.670
   C    26.590  15.870  23.240
   C    27.930  16.250  22.760
   C    28.980  15.330  23.370
   C    28.010  16.140  21.200
   N    28.220  17.660  23.090
   H    28.720  18.240  22.320
   C    27.780  18.320  24.330
   C    28.900  18.130  25.320
   C    27.530  19.850  24.070
   C    26.520  17.800  24.760
   C    22.690  13.240  26.130
   C    22.490  12.430  24.780
   C    21.510  13.230  23.890
   C    23.910  12.340  24.170
   O    24.260  13.140  23.280
   O    24.640  11.280  24.660
   C    26.030  11.030  24.410
   C    26.820  10.650  25.590
   C    28.310  10.670  25.320
   C    28.940  12.080  25.440
   C    29.000  9.840  26.420
   N    28.580  10.230  23.910
   H    29.560  10.300  23.440
   C    27.510  9.760  22.970
   C    27.680  10.430  21.600
   C    27.870  8.300  22.850
   C    26.100  9.940  23.480
   C    21.880  11.070  25.260
   C    21.470  9.900  24.340
   C    19.920  10.000  24.080
   C    21.750  8.620  25.280
   O    22.870  8.260  25.510
   O    20.740  8.070  25.820
   C    20.800  7.020  26.760
   C    20.340  5.720  26.090
   C    20.430  4.570  27.090
   C    21.840  3.920  27.130
   C    19.380  3.540  26.660
   N    20.160  4.950  28.500
   H    20.180  4.150  29.250
   C    19.840  6.310  28.970
   C    20.970  6.870  29.950
   C    18.510  6.340  29.700
   C    19.780  7.320  27.870
   C    22.250  9.720  23.050
   C    22.020  8.660  21.870
   C    22.000  7.230  22.490
   C    20.640  9.030  21.230
   O    19.820  8.140  21.090
   O    20.420  10.330  21.050
   C    19.190  10.840  20.700
   C    18.890  12.270  21.180
   C    17.490  12.650  20.980
   C    17.280  14.140  20.800
   C    16.690  12.240  22.220
   N    16.940  11.950  19.770
   H    15.860  11.890  19.650
   C    17.760  11.570  18.650
   C    16.920  10.720  17.760
   C    18.160  12.850  17.960
   C    19.020  10.820  19.180
   C    23.290  8.780  20.960
   C    23.290  8.440  19.400
   C    22.430  7.170  19.140
   C    22.700  9.670  18.680
   O    21.680  9.470  17.980
   O    23.230  10.860  19.050
   C    22.750  12.110  18.610
   C    23.100  13.040  19.740
   C    22.790  14.520  19.440
   C    21.380  14.970  19.830
   C    23.680  15.450  20.170
   N    22.950  14.840  18.020
   H    22.930  15.900  17.800
   C    23.040  13.890  16.870
   C    24.050  14.420  15.810
   C    21.650  13.750  16.240
   C    23.410  12.530  17.330
   C    24.810  8.170  18.940
   C    25.370  8.240  17.500
   C    26.510  7.280  17.510
   C    25.800  9.610  17.110
   O    25.310  10.220  16.170
   O    26.910  9.980  17.790
   C    27.650  11.060  17.280
   C    28.220  11.880  18.430
   C    29.140  12.980  18.060
   C    30.010  13.260  19.270
   C    28.300  14.300  17.710
   N    30.000  12.770  16.820
   O    30.970  13.550  16.740
   C    29.720  11.650  15.830
   C    31.060  11.030  15.400
   C    29.020  12.220  14.630
   C    28.780  10.510  16.430
   C    24.310  7.640  16.530
   H    21.350  15.580  26.170
   H    22.720  16.750  25.940
   H    21.990  15.780  24.630
   H    24.220  14.530  28.190
   H    22.390  14.880  28.270
   H    23.520  16.050  27.810
   H    26.990  15.820  25.390
   H    26.410  14.790  23.220
   H    25.760  16.170  22.600
   H    29.970  15.710  23.100
   H    28.930  14.340  22.920
   H    28.830  15.170  24.430
   H    29.020  16.340  20.830
   H    27.290  16.850  20.800
   H    27.790  15.110  20.940
   H    28.580  17.920  26.340
   H    29.610  17.340  25.090
   H    29.470  19.060  25.420
   H    28.430  20.320  23.670
   H    27.430  20.370  25.020
   H    26.780  20.120  23.340
   H    25.670  18.290  24.280
   H    26.390  18.110  25.800
   H    23.320  12.590  26.730
   H    21.720  13.250  26.620
   H    22.040  14.120  23.540
   H    20.680  13.480  24.540
   H    21.190  12.680  23.000
   H    26.370  11.970  23.960
   H    26.570  11.290  26.440
   H    26.380  9.690  25.890
   H    28.790  12.500  26.440
   H    30.000  11.960  25.200
   H    28.430  12.750  24.750
   H    28.780  10.230  27.420
   H    30.090  9.830  26.350
   H    28.580  8.840  26.340
   H    28.710  10.350  21.240
   H    27.100  9.900  20.840
   H    27.330  11.450  21.480
   H    27.200  7.780  22.160
   H    28.880  8.260  22.430
   H    27.910  7.760  23.800
   H    25.770  8.950  23.830
   H    25.460  10.150  22.630
   H    21.050  11.240  25.950
   H    22.670  10.700  25.910
   H    19.570  9.020  23.770
   H    19.370  10.170  25.010
   H    19.620  10.810  23.420
   H    21.760  6.930  27.260
   H    21.020  5.570  25.260
   H    19.330  5.820  25.680
   H    22.590  4.540  27.630
   H    22.020  3.680  26.090
   H    21.810  3.030  27.760
   H    19.100  2.840  27.440
   H    18.450  4.050  26.420
   H    19.800  3.030  25.790
   H    21.820  7.270  29.410
   H    21.440  6.000  30.400
   H    20.590  7.490  30.760
   H    17.750  5.870  29.080
   H    18.570  5.820  30.660
   H    18.160  7.320  30.010
   H    19.950  8.350  28.200
   H    18.780  7.250  27.430
   H    23.310  9.700  23.320
   H    22.290  10.750  22.700
   H    21.910  6.410  21.770
   H    21.200  6.970  23.190
   H    22.950  7.050  23.000
   H    18.360  10.240  21.070
   H    19.500  12.990  20.630
   H    19.220  12.520  22.190
   H    16.290  14.450  20.480
   H    18.050  14.500  20.110
   H    17.480  14.560  21.780
   H    17.220  12.480  23.140
   H    15.730  12.740  22.140
   H    16.510  11.170  22.140
   H    15.980  11.230  17.530
   H    17.370  10.460  16.810
   H    16.620  9.790  18.240
   H    18.840  13.400  18.600
   H    18.550  12.820  16.940
   H    17.360  13.570  17.820
   H    19.870  11.190  18.610
   H    19.130  9.810  18.770
   H    23.850  9.710  21.080
   H    23.940  7.990  21.340
   H    22.460  6.740  18.140
   H    21.410  7.440  19.400
   H    22.810  6.350  19.750
   H    21.670  12.130  18.460
   H    24.150  12.880  19.970
   H    22.540  12.670  20.600
   H    21.000  14.900  20.850
   H    20.590  14.500  19.260
   H    21.290  16.060  19.730
   H    23.510  16.480  19.860
   H    24.700  15.180  19.910
   H    23.560  15.380  21.250
   H    24.150  13.770  14.950
   H    25.060  14.570  16.200
   H    23.800  15.400  15.400
   H    20.940  13.350  16.960
   H    21.730  13.080  15.380
   H    21.360  14.780  15.990
   H    24.500  12.540  17.460
   H    23.330  11.810  16.510
   H    25.410  8.860  19.530
   H    25.050  7.200  19.360
   H    27.100  7.270  16.590
   H    27.270  7.620  18.220
   H    26.120  6.290  17.740
   H    26.940  11.640  16.690
   H    28.730  11.100  18.980
   H    27.390  12.210  19.060
   H    30.490  14.240  19.170
   H    30.850  12.600  19.450
   H    29.380  13.290  20.150
   H    27.550  14.090  16.950
   H    27.770  14.680  18.580
   H    28.920  15.140  17.390
   H    31.570  11.800  14.820
   H    31.770  10.640  16.120
   H    31.000  10.150  14.750
   H    28.400  11.590  13.990
   H    29.700  12.790  13.990
   H    28.250  12.920  14.960
   H    29.390  9.890  17.080
   H    28.380  9.860  15.650
   H    24.750  7.760  15.550
   H    24.100  6.570  16.620
   H    23.400  8.240  16.500
  
