  239
chainlength_6ptma_time_16.66%rad_20ns
 C    4.590  14.710  23.590
   C    4.870  14.230  22.080
   C    5.410  15.420  21.260
   C    3.550  13.780  21.440
   O    3.460  12.860  20.670
   O    2.500  14.420  21.930
   C    1.220  14.240  21.470
   C    0.530  13.230  22.380
   C    -0.970  13.120  22.200
   C    -1.480  11.670  21.920
   C    -1.730  13.470  23.480
   N    -1.480  13.970  21.080
   H    -2.310  13.600  20.470
   C    -0.950  15.280  20.850
   C    -0.810  15.470  19.320
   C    -1.940  16.340  21.370
   C    0.450  15.480  21.530
   C    6.050  13.120  21.960
   C    6.060  11.820  22.810
   C    6.590  12.160  24.230
   C    4.640  11.260  22.970
   O    3.930  11.500  23.970
   O    4.260  10.460  21.970
   C    2.900  9.990  21.770
   C    2.630  9.980  20.230
   C    1.560  9.000  19.820
   C    0.570  9.790  18.910
   C    2.100  7.780  18.980
   N    0.820  8.380  20.960
   H    -0.220  8.140  20.780
   C    1.430  8.070  22.280
   C    0.500  8.650  23.370
   C    1.340  6.480  22.430
   C    2.800  8.610  22.310
   C    7.040  10.870  22.000
   C    7.680  9.600  22.680
   C    8.980  10.010  23.460
   C    8.210  8.720  21.490
   O    7.400  8.010  20.890
   O    9.480  8.980  21.220
   C    10.190  8.220  20.300
   C    11.700  8.050  20.700
   C    12.560  7.830  19.470
   C    13.480  6.590  19.850
   C    13.450  9.000  19.120
   N    11.740  7.350  18.340
   H    12.010  6.470  17.770
   C    10.620  8.120  17.850
   C    9.640  7.100  17.210
   C    11.160  8.920  16.710
   C    10.030  8.970  18.980
   C    6.570  8.690  23.470
   C    6.990  7.440  24.290
   C    7.910  6.470  23.600
   C    7.740  7.860  25.600
   O    8.800  7.290  25.950
   O    7.250  8.890  26.250
   C    7.790  9.350  27.490
   C    8.950  10.240  27.250
   C    9.610  10.710  28.600
   C    9.870  12.190  28.520
   C    10.970  10.030  28.890
   N    8.790  10.320  29.800
   H    9.220  10.180  30.790
   C    7.270  10.250  29.690
   C    6.860  9.100  30.580
   C    6.690  11.470  30.330
   C    6.760  10.070  28.280
   C    5.720  6.560  24.480
   C    5.320  5.680  25.730
   C    6.510  4.680  26.270
   C    4.930  6.720  26.900
   O    5.490  6.890  27.950
   O    3.850  7.360  26.500
   C    3.160  8.240  27.370
   C    2.990  9.500  26.540
   C    2.280  10.670  27.330
   C    3.360  11.510  28.010
   C    1.530  11.620  26.430
   N    1.410  10.110  28.370
   H    1.160  10.730  29.230
   C    0.840  8.690  28.330
   C    -0.380  8.740  27.380
   C    0.370  8.220  29.690
   C    1.810  7.680  27.770
   C    4.070  4.780  25.450
   C    3.460  3.610  26.410
   C    3.160  4.050  27.910
   C    4.400  2.370  26.290
   O    4.580  1.740  27.290
   O    4.460  1.920  25.050
   C    4.790  0.560  24.750
   C    3.550  -0.000  24.060
   C    3.600  -1.410  23.350
   C    2.410  -1.400  22.360
   C    3.390  -2.500  24.390
   N    4.930  -1.600  22.680
   O    5.060  -2.610  21.970
   C    6.180  -0.690  22.970
   C    6.890  -0.310  21.640
   C    7.220  -1.460  23.790
   C    5.910  0.620  23.830
   C    2.130  3.260  25.770
   H    5.550  14.900  24.060
   H    4.070  15.640  23.810
   H    4.170  13.870  24.140
   H    6.380  15.770  21.600
   H    4.740  16.270  21.400
   H    5.530  15.150  20.210
   H    1.250  13.840  20.460
   H    0.930  12.210  22.380
   H    0.740  13.620  23.370
   H    -0.860  11.130  21.210
   H    -2.530  11.610  21.630
   H    -1.400  11.030  22.790
   H    -1.370  14.480  23.670
   H    -1.480  12.860  24.350
   H    -2.790  13.530  23.210
   H    -0.460  14.530  18.870
   H    -1.770  15.770  18.910
   H    -0.150  16.320  19.190
   H    -2.970  16.120  21.090
   H    -1.780  17.350  20.980
   H    -1.950  16.430  22.460
   H    0.410  15.870  22.550
   H    0.970  16.260  20.960
   H    6.130  12.780  20.920
   H    6.960  13.720  22.030
   H    6.870  11.260  24.790
   H    5.930  12.690  24.900
   H    7.570  12.640  24.190
   H    2.240  10.720  22.250
   H    2.410  11.000  19.910
   H    3.540  9.690  19.700
   H    0.190  10.650  19.470
   H    1.090  10.110  18.010
   H    -0.230  9.180  18.500
   H    1.390  6.960  18.870
   H    2.920  7.330  19.530
   H    2.580  8.010  18.040
   H    -0.540  8.460  23.130
   H    0.700  8.140  24.310
   H    0.670  9.720  23.540
   H    2.230  6.010  22.010
   H    1.430  6.170  23.470
   H    0.520  6.160  21.790
   H    3.490  7.940  21.800
   H    3.070  8.630  23.370
   H    7.960  11.330  21.620
   H    6.560  10.530  21.090
   H    8.670  10.540  24.360
   H    9.530  9.100  23.710
   H    9.520  10.630  22.750
   H    9.790  7.210  20.190
   H    11.750  7.210  21.400
   H    12.160  8.890  21.220
   H    12.900  5.670  19.840
   H    13.830  6.750  20.870
   H    14.280  6.440  19.130
   H    12.910  9.950  19.150
   H    14.340  9.050  19.750
   H    13.720  8.870  18.070
   H    8.780  7.410  16.610
   H    9.260  6.430  17.970
   H    10.190  6.440  16.540
   H    11.580  8.380  15.860
   H    10.330  9.430  16.210
   H    11.910  9.630  17.070
   H    9.010  9.260  18.730
   H    10.620  9.890  19.050
   H    5.850  8.370  22.720
   H    5.980  9.240  24.200
   H    8.090  5.610  24.240
   H    8.910  6.870  23.460
   H    7.570  6.120  22.620
   H    8.080  8.460  28.050
   H    8.610  11.130  26.720
   H    9.660  9.690  26.640
   H    8.970  12.800  28.500
   H    10.370  12.370  27.560
   H    10.550  12.500  29.310
   H    11.470  10.450  29.760
   H    11.020  8.950  28.990
   H    11.630  10.150  28.030
   H    7.220  8.180  30.120
   H    7.280  9.200  31.580
   H    5.790  9.100  30.760
   H    7.130  12.400  29.950
   H    5.610  11.440  30.170
   H    6.790  11.490  31.410
   H    6.390  10.860  27.630
   H    5.910  9.390  28.290
   H    4.860  7.160  24.180
   H    5.630  5.810  23.700
   H    6.650  3.770  25.700
   H    6.230  4.350  27.270
   H    7.540  5.050  26.350
   H    3.730  8.590  28.230
   H    2.390  9.120  25.720
   H    3.960  9.710  26.070
   H    4.130  11.810  27.300
   H    3.680  11.000  28.920
   H    2.880  12.460  28.260
   H    0.960  12.250  27.110
   H    0.820  11.120  25.770
   H    2.150  12.300  25.850
   H    -0.180  8.650  26.310
   H    -0.690  9.780  27.280
   H    -1.300  8.250  27.720
   H    1.280  8.010  30.260
   H    -0.180  7.280  29.660
   H    -0.290  8.900  30.220
   H    1.320  7.030  27.050
   H    1.970  6.890  28.500
   H    3.350  5.530  25.120
   H    4.260  4.190  24.550
   H    2.650  3.230  28.410
   H    4.030  4.280  28.520
   H    2.400  4.820  27.850
   H    5.060  -0.090  25.580
   H    3.360  0.680  23.240
   H    2.690  0.210  24.690
   H    2.000  -2.400  22.230
   H    2.690  -1.080  21.360
   H    1.720  -0.590  22.600
   H    2.330  -2.740  24.500
   H    3.880  -3.400  24.020
   H    3.710  -2.230  25.390
   H    7.880  0.080  21.880
   H    7.120  -1.190  21.040
   H    6.400  0.400  20.990
   H    6.760  -1.920  24.660
   H    8.130  -0.910  24.030
   H    7.550  -2.330  23.210
   H    5.680  1.390  23.090
   H    6.850  0.770  24.360
   H    1.350  4.000  25.560
   H    2.270  2.640  24.880
   H    1.680  2.560  26.470
  
