  239
chainlength_6ptma_100%rad_time_12ns  
  C      8.920000   11.950000   16.070000
  C      7.910000   12.140000   17.150000
  C      6.680000   12.870000   16.630000
  C      8.670000   13.000000   18.130000
  O      9.850000   12.690000   18.450000
  O      8.000000   14.120000   18.520000
  C      8.830000   15.160000   19.100000
  C      8.340000   16.470000   18.600000
  C      9.120000   17.690000   19.140000
  C     10.520000   17.940000   18.470000
  C      8.120000   18.890000   18.920000
  N      9.320000   17.640000   20.680000
  O      9.290000   18.630000   21.380000
  C      9.690000   16.260000   21.320000
  C     11.190000   16.070000   21.270000
  C      9.290000   16.230000   22.820000
  C      8.850000   15.150000   20.640000
  C      7.510000   10.750000   17.670000
  C      6.450000   10.460000   18.770000
  C      6.450000   11.650000   19.790000
  C      5.140000   10.280000   18.100000
  O      4.160000   10.770000   18.590000
  O      5.090000    9.650000   16.850000
  C      3.800000    9.490000   16.260000
  C      3.620000   10.750000   15.540000
  C      2.300000   10.760000   14.610000
  C      1.230000   11.670000   15.230000
  C      2.610000   11.310000   13.190000
  N      1.590000    9.430000   14.450000
  O      0.540000    9.480000   13.870000
  C      2.270000    8.120000   14.740000
  C      1.470000    7.340000   15.900000
  C      2.280000    7.160000   13.570000
  C      3.690000    8.360000   15.270000
  C      6.810000    9.050000   19.480000
  C      6.230000    8.530000   20.850000
  C      6.980000    9.430000   21.900000
  C      6.760000    7.060000   21.180000
  O      7.260000    6.770000   22.220000
  O      6.830000    6.360000   20.080000
  C      7.400000    5.020000   20.150000
  C      8.340000    4.740000   19.000000
  C      9.140000    3.440000   19.330000
  C     10.440000    3.800000   20.040000
  C      9.550000    2.870000   17.920000
  N      8.290000    2.460000   20.090000
  O      8.860000    1.380000   20.430000
  C      6.790000    2.590000   20.170000
  C      6.420000    2.010000   21.560000
  C      6.070000    1.730000   19.010000
  C      6.250000    4.010000   20.100000
  C      4.690000    8.670000   21.140000
  C      3.520000    7.680000   20.700000
  C      3.890000    6.980000   19.410000
  C      3.330000    6.510000   21.710000
  O      2.800000    5.410000   21.440000
  O      3.870000    6.740000   22.850000
  C      4.260000    5.820000   23.810000
  C      5.090000    6.560000   24.840000
  C      5.610000    5.670000   26.000000
  C      6.380000    6.610000   26.950000
  C      6.570000    4.630000   25.560000
  N      4.490000    4.880000   26.590000
  O      4.620000    4.410000   27.700000
  C      3.340000    4.390000   25.730000
  C      3.690000    2.950000   25.270000
  C      2.090000    4.360000   26.550000
  C      3.040000    5.240000   24.480000
  C      2.160000    8.500000   20.550000
  C      1.230000    9.020000   21.720000
  C      0.130000    8.010000   22.060000
  C      1.970000    9.250000   23.110000
  O      1.640000    8.750000   24.160000
  O      2.890000   10.200000   23.060000
  C      3.200000   10.930000   24.190000
  C      4.490000   10.310000   24.790000
  C      4.900000   10.930000   26.150000
  C      3.940000   10.460000   27.280000
  C      6.350000   10.450000   26.530000
  N      4.860000   12.440000   26.050000
  O      5.520000   13.020000   26.880000
  C      3.990000   13.210000   25.090000
  C      4.880000   14.430000   24.530000
  C      2.790000   13.720000   25.900000
  C      3.640000   12.360000   23.820000
  C      0.590000   10.400000   21.300000
  C     -0.380000   10.700000   20.130000
  C      0.120000   10.160000   18.790000
  C     -0.490000   12.260000   20.040000
  O     -0.910000   12.930000   20.970000
  O      0.220000   12.790000   18.990000
  C      0.750000   14.080000   19.100000
  C      1.880000   14.160000   20.100000
  C      2.570000   15.470000   20.280000
  C      4.020000   15.240000   20.790000
  C      1.870000   16.220000   21.460000
  N      2.630000   16.250000   19.040000
  O      3.250000   17.300000   19.130000
  C      1.910000   15.920000   17.770000
  C      2.980000   16.090000   16.670000
  C      0.820000   17.000000   17.460000
  C      1.380000   14.520000   17.790000
  C     -1.760000   10.160000   20.460000
  H      8.500000   11.600000   15.120000
  H      9.340000   12.900000   15.750000
  H      9.760000   11.340000   16.420000
  H      7.060000   13.860000   16.370000
  H      5.870000   12.950000   17.370000
  H      6.310000   12.510000   15.670000
  H      9.830000   15.080000   18.680000
  H      8.240000   16.510000   17.510000
  H      7.310000   16.600000   18.920000
  H     11.050000   16.990000   18.430000
  H     11.110000   18.640000   19.070000
  H     10.450000   18.290000   17.440000
  H      8.480000   19.790000   19.410000
  H      7.170000   18.670000   19.400000
  H      8.110000   19.160000   17.860000
  H     11.540000   15.450000   22.090000
  H     11.560000   15.600000   20.360000
  H     11.680000   17.040000   21.300000
  H      9.880000   16.900000   23.440000
  H      9.280000   15.200000   23.180000
  H      8.290000   16.680000   22.830000
  H      7.800000   15.210000   20.960000
  H      9.200000   14.210000   21.060000
  H      7.370000   10.050000   16.840000
  H      8.460000   10.420000   18.090000
  H      7.410000   11.780000   20.280000
  H      5.640000   11.440000   20.480000
  H      6.260000   12.600000   19.280000
  H      3.030000    9.480000   17.030000
  H      3.650000   11.630000   16.180000
  H      4.550000   10.980000   15.010000
  H      0.750000   11.260000   16.120000
  H      1.620000   12.660000   15.470000
  H      0.380000   11.920000   14.590000
  H      3.020000   12.320000   13.280000
  H      1.670000   11.340000   12.650000
  H      3.270000   10.610000   12.680000
  H      2.080000    6.500000   16.230000
  H      1.300000    7.940000   16.790000
  H      0.490000    7.000000   15.540000
  H      2.580000    7.600000   12.630000
  H      2.970000    6.340000   13.790000
  H      1.350000    6.630000   13.350000
  H      4.470000    8.630000   14.560000
  H      3.940000    7.380000   15.660000
  H      7.900000    9.050000   19.520000
  H      6.730000    8.270000   18.710000
  H      6.930000    9.110000   22.940000
  H      8.050000    9.490000   21.700000
  H      6.690000   10.460000   22.120000
  H      8.050000    4.870000   21.010000
  H      9.020000    5.590000   18.940000
  H      7.820000    4.690000   18.040000
  H     11.000000    2.890000   20.250000
  H     10.230000    4.320000   20.980000
  H     10.980000    4.490000   19.400000
  H      9.910000    1.850000   17.820000
  H      8.730000    2.820000   17.200000
  H     10.340000    3.440000   17.430000
  H      6.510000    2.710000   22.390000
  H      7.120000    1.230000   21.850000
  H      5.400000    1.630000   21.570000
  H      6.370000    0.700000   19.140000
  H      4.980000    1.620000   19.030000
  H      6.460000    1.980000   18.030000
  H      5.610000    4.190000   20.970000
  H      5.610000    4.070000   19.220000
  H      4.440000    9.660000   20.740000
  H      4.610000    8.810000   22.220000
  H      4.430000    7.630000   18.740000
  H      2.990000    6.570000   18.940000
  H      4.440000    6.040000   19.550000
  H      4.700000    4.920000   23.370000
  H      4.410000    7.300000   25.270000
  H      5.910000    7.110000   24.400000
  H      6.890000    6.110000   27.780000
  H      5.780000    7.360000   27.470000
  H      7.160000    7.100000   26.380000
  H      7.510000    5.060000   25.210000
  H      6.890000    4.040000   26.420000
  H      6.330000    4.060000   24.660000
  H      2.710000    2.550000   25.000000
  H      4.390000    2.950000   24.430000
  H      3.970000    2.360000   26.140000
  H      2.060000    3.580000   27.310000
  H      2.090000    5.250000   27.170000
  H      1.110000    4.310000   26.080000
  H      2.420000    6.110000   24.730000
  H      2.480000    4.570000   23.830000
  H      2.370000    9.380000   19.930000
  H      1.520000    7.860000   19.950000
  H      0.510000    7.070000   22.460000
  H     -0.600000    7.800000   21.280000
  H     -0.560000    8.310000   22.840000
  H      2.460000   10.860000   24.990000
  H      5.400000   10.400000   24.200000
  H      4.310000    9.250000   24.960000
  H      4.170000    9.410000   27.430000
  H      2.900000   10.650000   27.030000
  H      4.180000   11.000000   28.200000
  H      7.010000   10.860000   25.760000
  H      6.400000    9.390000   26.320000
  H      6.700000   10.710000   27.530000
  H      4.210000   15.200000   24.150000
  H      5.660000   14.090000   23.850000
  H      5.260000   15.050000   25.340000
  H      1.830000   13.640000   25.390000
  H      2.840000   14.750000   26.240000
  H      2.730000   13.110000   26.800000
  H      4.420000   12.240000   23.070000
  H      2.760000   12.830000   23.370000
  H      0.080000   10.720000   22.210000
  H      1.340000   11.190000   21.350000
  H      1.150000   10.450000   18.550000
  H      0.280000    9.080000   18.800000
  H     -0.530000   10.420000   17.960000
  H     -0.020000   14.800000   19.370000
  H      2.570000   13.430000   19.670000
  H      1.710000   13.740000   21.090000
  H      4.630000   14.690000   20.070000
  H      4.120000   14.690000   21.720000
  H      4.460000   16.200000   21.040000
  H      2.230000   17.250000   21.560000
  H      0.790000   16.380000   21.340000
  H      2.000000   15.760000   22.430000
  H      3.370000   17.110000   16.690000
  H      3.840000   15.420000   16.540000
  H      2.490000   16.050000   15.700000
  H      1.370000   17.930000   17.320000
  H      0.010000   17.070000   18.190000
  H      0.380000   16.860000   16.470000
  H      2.170000   13.840000   17.480000
  H      0.630000   14.420000   17.000000
  H     -2.530000   10.600000   19.810000
  H     -1.730000    9.070000   20.380000
  H     -1.910000   10.430000   21.510000