  239
chainlength_6ptma_100%rad_time_5ns
 C    8.340  10.030  14.770
   C    7.330  10.370  15.840
   C    5.990  10.670  15.200
   C    7.950  11.580  16.590
   O    8.940  11.440  17.320
   O    7.250  12.720  16.640
   C    7.680  13.920  17.320
   C    8.800  14.650  16.640
   C    9.140  16.040  17.300
   C    10.550  16.070  17.860
   C    9.050  17.120  16.210
   N    8.170  16.470  18.320
   O    8.510  17.260  19.180
   C    6.750  15.980  18.430
   C    6.470  15.470  19.840
   C    5.790  17.210  18.140
   C    6.500  14.830  17.380
   C    7.340  9.060  16.770
   C    6.300  8.940  18.020
   C    6.170  10.270  18.770
   C    4.890  8.660  17.440
   O    3.840  9.150  17.870
   O    4.990  7.650  16.570
   C    3.820  7.330  15.830
   C    3.750  8.060  14.470
   C    2.580  7.570  13.640
   C    1.360  8.240  14.150
   C    2.880  8.160  12.260
   N    2.510  6.030  13.550
   O    2.060  5.580  12.500
   C    2.910  5.120  14.670
   C    1.650  4.990  15.580
   C    3.510  3.820  14.120
   C    3.960  5.810  15.500
   C    6.820  7.710  18.840
   C    6.480  7.360  20.330
   C    7.280  8.250  21.250
   C    7.060  5.940  20.710
   O    6.330  5.170  21.300
   O    8.310  5.690  20.290
   C    8.970  4.470  20.740
   C    10.050  4.750  21.790
   C    10.820  3.460  22.250
   C    10.180  2.760  23.510
   C    12.180  3.970  22.730
   N    10.980  2.390  21.230
   O    11.620  1.410  21.550
   C    10.200  2.310  19.950
   C    9.020  1.270  20.030
   C    11.130  1.820  18.860
   C    9.740  3.780  19.560
   C    4.930  7.530  20.680
   C    3.780  6.460  20.500
   C    4.040  5.520  19.320
   C    3.530  5.530  21.730
   O    2.950  4.430  21.590
   O    3.820  6.050  22.940
   C    3.590  5.250  24.110
   C    4.520  4.020  24.300
   C    4.490  3.250  25.630
   C    5.720  2.480  25.900
   C    3.270  2.340  25.570
   N    4.260  4.170  26.820
   O    4.130  3.660  27.880
   C    3.820  5.620  26.650
   C    2.340  5.820  27.100
   C    4.680  6.450  27.680
   C    4.000  6.160  25.220
   C    2.440  7.210  20.160
   C    1.450  7.850  21.270
   C    0.600  6.850  21.950
   C    2.220  8.600  22.430
   O    2.060  8.360  23.630
   O    2.820  9.720  22.020
   C    3.420  10.580  23.000
   C    4.740  10.060  23.540
   C    5.260  10.980  24.610
   C    4.670  10.510  25.990
   C    6.740  10.750  24.540
   N    4.880  12.450  24.500
   O    5.440  13.250  25.290
   C    4.050  12.940  23.360
   C    4.900  13.980  22.630
   C    2.690  13.440  23.890
   C    3.690  11.870  22.330
   C    0.560  9.030  20.550
   C    -0.580  8.750  19.570
   C    -0.370  7.510  18.650
   C    -0.830  9.970  18.640
   O    -1.860  10.520  18.600
   O    0.230  10.310  17.940
   C    0.380  11.560  17.370
   C    1.200  12.320  18.390
   C    1.540  13.760  17.900
   C    2.780  14.300  18.710
   C    0.370  14.660  18.200
   N    1.750  13.810  16.360
   O    2.110  14.920  15.820
   C    1.530  12.690  15.470
   C    2.750  12.660  14.520
   C    0.350  13.020  14.570
   C    1.200  11.330  16.120
   C    -1.860  8.480  20.350
   H    9.370  9.850  15.090
   H    8.110  9.140  14.190
   H    8.400  10.860  14.050
   H    5.120  10.960  15.800
   H    5.660  9.940  14.460
   H    6.130  11.580  14.630
   H    7.980  13.710  18.350
   H    9.710  14.100  16.900
   H    8.800  14.670  15.550
   H    11.320  15.540  17.300
   H    10.540  15.650  18.860
   H    10.830  17.100  18.070
   H    9.130  18.150  16.560
   H    8.080  16.900  15.770
   H    9.730  16.890  15.390
   H    6.600  16.240  20.600
   H    5.440  15.130  19.920
   H    7.170  14.660  20.030
   H    6.050  18.010  18.840
   H    4.770  16.820  18.110
   H    6.020  17.700  17.200
   H    6.260  15.380  16.460
   H    5.610  14.340  17.770
   H    7.240  8.170  16.140
   H    8.360  9.020  17.140
   H    7.080  10.560  19.290
   H    5.450  10.270  19.590
   H    5.920  11.140  18.150
   H    2.890  7.390  16.390
   H    3.620  9.100  14.770
   H    4.760  7.930  14.070
   H    1.120  7.960  15.180
   H    1.440  9.320  14.080
   H    0.540  8.000  13.470
   H    2.740  9.240  12.280
   H    2.340  7.700  11.430
   H    3.920  8.080  11.940
   H    1.880  5.480  16.530
   H    0.750  5.470  15.200
   H    1.440  3.930  15.680
   H    4.430  4.060  13.580
   H    3.720  3.090  14.900
   H    2.940  3.440  13.270
   H    4.900  5.610  14.990
   H    4.120  5.190  16.380
   H    7.890  7.880  18.980
   H    6.740  6.850  18.190
   H    6.950  9.280  21.200
   H    7.070  8.010  22.300
   H    8.350  8.070  21.150
   H    8.230  3.710  21.010
   H    9.540  5.140  22.680
   H    10.740  5.490  21.380
   H    10.550  1.800  23.880
   H    9.100  2.710  23.400
   H    10.290  3.350  24.420
   H    12.840  3.150  23.030
   H    12.760  4.520  21.990
   H    12.170  4.620  23.600
   H    8.270  1.600  20.750
   H    9.430  0.300  20.300
   H    8.440  1.280  19.100
   H    10.580  1.780  17.920
   H    12.020  2.440  18.800
   H    11.660  0.880  19.000
   H    9.080  3.780  18.690
   H    10.610  4.370  19.270
   H    4.600  8.410  20.130
   H    4.760  8.080  21.600
   H    4.290  6.150  18.460
   H    3.150  4.940  19.090
   H    4.810  4.770  19.480
   H    2.510  5.110  24.150
   H    5.520  4.370  24.060
   H    4.310  3.450  23.390
   H    6.530  3.210  25.960
   H    5.700  1.630  25.220
   H    5.780  2.150  26.940
   H    2.290  2.790  25.350
   H    3.340  1.630  24.750
   H    3.210  1.750  26.480
   H    2.260  6.880  27.310
   H    1.660  5.410  26.350
   H    2.180  5.360  28.080
   H    4.500  7.520  27.740
   H    4.500  5.950  28.640
   H    5.740  6.340  27.460
   H    5.060  6.410  25.160
   H    3.440  7.090  25.120
   H    2.560  7.950  19.380
   H    1.700  6.450  19.880
   H    0.250  6.020  21.330
   H    -0.310  7.320  22.340
   H    1.220  6.340  22.680
   H    2.710  10.700  23.820
   H    5.450  9.920  22.720
   H    4.570  9.070  23.950
   H    4.820  9.450  26.200
   H    3.600  10.690  25.900
   H    5.060  11.120  26.810
   H    7.030  9.720  24.760
   H    7.210  11.400  25.280
   H    7.260  11.050  23.630
   H    4.930  14.870  23.260
   H    4.520  14.100  21.620
   H    5.950  13.690  22.510
   H    2.820  14.250  24.620
   H    2.060  12.710  24.400
   H    2.000  13.800  23.130
   H    4.440  11.750  21.540
   H    2.930  12.270  21.670
   H    0.110  9.600  21.360
   H    1.250  9.760  20.120
   H    0.530  7.640  18.040
   H    -0.400  6.600  19.250
   H    -1.100  7.390  17.860
   H    -0.570  12.010  17.050
   H    2.160  11.850  18.620
   H    0.570  12.380  19.280
   H    3.000  15.320  18.390
   H    3.680  13.680  18.650
   H    2.420  14.510  19.710
   H    0.580  15.660  17.800
   H    -0.550  14.330  17.700
   H    0.190  14.670  19.270
   H    3.010  11.670  14.170
   H    2.680  13.170  13.560
   H    3.600  13.130  15.020
   H    0.230  12.220  13.840
   H    0.570  13.960  14.060
   H    -0.540  13.120  15.200
   H    2.110  10.740  16.290
   H    0.500  10.780  15.490
   H    -2.720  8.280  19.720
   H    -1.860  7.560  20.930
   H    -2.050  9.340  21.000
  