  239
chainlength_6ptma_100%rad_time_0.5ps
 C    18.680  19.410  27.820
   C    17.370  20.040  27.330
   C    17.070  19.350  25.930
   C    17.710  21.550  27.120
   O    17.230  22.150  26.160
   O    18.740  22.020  27.910
   C    19.250  23.410  27.810
   C    18.370  24.490  28.320
   C    19.030  25.890  27.970
   C    18.690  26.430  26.570
   C    18.530  26.900  28.980
   N    20.540  25.840  28.060
   O    21.150  26.900  27.760
   C    21.390  24.730  28.470
   C    22.490  24.450  27.400
   C    21.930  25.090  29.760
   C    20.480  23.440  28.640
   C    16.330  19.790  28.490
   C    14.830  19.380  28.310
   C    14.100  20.570  27.600
   C    14.600  18.110  27.460
   O    13.710  17.970  26.630
   O    15.560  17.250  27.770
   C    15.440  15.830  27.670
   C    16.410  15.250  26.660
   C    17.410  14.040  27.040
   C    17.240  12.860  25.970
   C    18.860  14.610  27.030
   N    17.120  13.420  28.480
   O    17.680  12.320  28.770
   C    16.090  13.990  29.370
   C    14.780  13.220  29.280
   C    16.460  13.840  30.890
   C    15.810  15.450  29.060
   C    14.380  19.120  29.840
   C    12.890  19.280  30.330
   C    12.580  20.750  30.560
   C    12.910  18.450  31.620
   O    13.370  17.300  31.550
   O    12.750  19.040  32.780
   C    12.970  18.250  33.950
   C    11.910  18.490  34.840
   C    11.950  17.810  36.190
   C    11.610  16.300  36.080
   C    10.800  18.370  37.070
   N    13.270  18.100  36.630
   O    13.350  18.920  37.600
   C    14.550  18.100  35.910
   C    15.090  16.680  35.800
   C    15.690  19.010  36.540
   C    14.410  18.550  34.450
   C    11.790  18.580  29.420
   C    10.420  17.910  29.960
   C    10.860  16.520  30.530
   C    9.540  18.660  31.060
   O    9.130  17.980  32.070
   O    9.600  20.030  31.010
   C    8.850  20.810  32.020
   C    9.680  21.300  33.070
   C    9.180  22.580  33.820
   C    10.320  23.740  33.700
   C    9.290  22.190  35.310
   N    7.780  23.090  33.420
   O    7.340  24.180  33.890
   C    7.140  22.670  32.140
   C    5.800  21.820  32.250
   C    6.670  23.840  31.190
   C    8.140  21.910  31.280
   C    9.650  17.520  28.630
   C    9.090  18.360  27.410
   C    7.650  17.860  26.970
   C    8.960  19.810  27.990
   O    7.850  20.230  28.290
   O    9.940  20.570  27.570
   C    9.720  21.850  26.990
   C    9.880  23.070  27.910
   C    9.980  24.430  27.120
   C    8.890  25.460  27.600
   C    11.380  24.980  27.520
   N    9.870  24.360  25.660
   O    9.250  25.330  25.040
   C    10.340  23.190  24.940
   C    11.620  23.590  24.170
   C    9.260  22.610  24.040
   C    10.790  22.060  25.930
   C    9.980  18.300  26.030
   C    9.990  17.050  24.990
   C    10.130  15.760  25.800
   C    11.260  17.220  24.040
   O    11.510  18.320  23.520
   O    11.780  16.080  23.610
   C    13.100  15.910  23.040
   C    13.500  14.490  23.550
   C    14.490  13.740  22.520
   C    14.690  12.200  22.730
   C    15.880  14.490  22.470
   N    13.760  13.820  21.210
   O    14.150  13.080  20.310
   C    12.640  14.840  20.770
   C    11.240  14.510  21.360
   C    12.420  15.070  19.260
   C    13.040  16.120  21.500
   C    8.780  16.860  23.980
   H    18.590  18.470  28.370
   H    19.370  19.240  26.990
   H    19.270  19.940  28.570
   H    17.160  18.260  25.990
   H    17.880  19.650  25.270
   H    16.100  19.590  25.500
   H    19.430  23.460  26.730
   H    17.380  24.540  27.860
   H    18.210  24.530  29.400
   H    18.920  25.670  25.820
   H    19.350  27.250  26.270
   H    17.710  26.860  26.380
   H    18.560  26.500  29.990
   H    17.450  27.060  28.890
   H    19.020  27.840  28.750
   H    22.750  25.470  27.100
   H    23.380  23.950  27.790
   H    22.130  23.900  26.530
   H    21.120  25.270  30.470
   H    22.580  25.950  29.650
   H    22.550  24.300  30.190
   H    20.260  23.450  29.710
   H    21.200  22.650  28.440
   H    16.710  19.010  29.150
   H    16.330  20.660  29.150
   H    13.020  20.500  27.470
   H    14.470  20.670  26.580
   H    14.330  21.560  27.990
   H    14.400  15.580  27.460
   H    15.730  14.930  25.870
   H    17.060  15.960  26.160
   H    16.240  12.630  25.620
   H    17.830  13.210  25.120
   H    17.670  11.880  26.220
   H    19.670  13.890  26.910
   H    19.310  15.300  27.750
   H    19.030  15.170  26.120
   H    15.050  12.170  29.270
   H    13.940  13.500  29.910
   H    14.410  13.410  28.270
   H    17.200  13.100  31.190
   H    16.930  14.750  31.270
   H    15.750  13.440  31.620
   H    16.780  15.820  29.390
   H    15.100  15.800  29.810
   H    15.020  19.730  30.490
   H    14.760  18.110  30.000
   H    12.430  21.300  29.630
   H    11.730  21.010  31.200
   H    13.350  21.170  31.200
   H    13.090  17.200  33.680
   H    10.940  18.320  34.380
   H    11.870  19.560  35.060
   H    11.760  15.860  37.070
   H    12.210  15.700  35.410
   H    10.550  16.100  35.910
   H    11.060  19.320  37.550
   H    9.910  18.610  36.490
   H    10.620  17.700  37.900
   H    15.480  16.290  34.860
   H    14.330  15.960  36.080
   H    15.980  16.490  36.410
   H    15.450  20.070  36.460
   H    15.870  18.880  37.610
   H    16.600  19.010  35.950
   H    15.210  18.260  33.780
   H    14.440  19.640  34.470
   H    12.300  17.860  28.790
   H    11.440  19.340  28.720
   H    11.540  15.980  29.870
   H    10.030  15.820  30.560
   H    11.140  16.550  31.590
   H    8.100  20.150  32.460
   H    10.750  21.340  32.870
   H    9.670  20.440  33.730
   H    11.360  23.390  33.680
   H    10.310  24.470  34.510
   H    10.280  24.390  32.820
   H    9.020  22.990  35.990
   H    8.790  21.250  35.560
   H    10.320  21.880  35.510
   H    5.100  21.870  31.410
   H    6.080  20.770  32.370
   H    5.320  22.240  33.120
   H    7.510  24.500  31.000
   H    6.410  23.640  30.150
   H    5.930  24.460  31.700
   H    8.820  22.640  30.840
   H    7.650  21.440  30.430
   H    10.240  16.710  28.200
   H    8.690  17.090  28.910
   H    7.460  16.790  26.820
   H    7.260  18.340  26.070
   H    7.030  18.050  27.850
   H    8.770  21.880  26.460
   H    10.800  22.900  28.470
   H    9.040  23.120  28.600
   H    8.370  25.030  28.460
   H    8.040  25.540  26.920
   H    9.250  26.490  27.650
   H    11.610  25.070  28.580
   H    11.580  25.960  27.090
   H    12.110  24.330  27.040
   H    11.860  24.640  24.320
   H    11.520  23.380  23.100
   H    12.510  23.090  24.550
   H    8.370  22.420  24.630
   H    9.590  21.670  23.610
   H    9.060  23.300  23.220
   H    11.790  22.270  26.330
   H    11.210  21.240  25.340
   H    9.820  19.250  25.510
   H    10.990  18.320  26.430
   H    9.140  15.400  26.110
   H    10.500  14.930  25.200
   H    10.910  15.970  26.530
   H    13.630  16.730  23.520
   H    12.650  13.850  23.760
   H    14.170  14.570  24.410
   H    15.410  11.670  22.110
   H    13.760  11.640  22.650
   H    15.090  12.040  23.730
   H    16.540  13.980  21.770
   H    15.930  15.550  22.240
   H    16.340  14.440  23.450
   H    11.170  13.960  22.300
   H    10.760  15.460  21.570
   H    10.720  13.900  20.620
   H    11.560  15.720  19.100
   H    12.410  14.180  18.620
   H    13.040  15.780  18.720
   H    12.480  16.950  21.070
   H    14.040  16.170  21.080
   H    8.800  17.690  23.270
   H    8.900  15.880  23.510
   H    7.800  16.740  24.460
  