  239
chainlength_6ptma_100%rad_time_11ns  
  C      7.430000   10.900000   15.540000
  C      6.630000   11.280000   16.770000
  C      5.310000   11.860000   16.350000
  C      7.460000   12.420000   17.480000
  O      8.560000   12.180000   17.950000
  O      6.860000   13.630000   17.530000
  C      7.400000   14.760000   18.180000
  C      6.450000   15.920000   17.890000
  C      6.890000   17.310000   18.530000
  C      7.950000   17.910000   17.570000
  C      5.670000   18.230000   18.530000
  N      7.480000   17.190000   19.930000
  O      7.480000   18.180000   20.620000
  C      7.980000   15.870000   20.430000
  C      9.500000   15.950000   20.300000
  C      7.670000   15.700000   21.970000
  C      7.320000   14.650000   19.780000
  C      6.510000   10.080000   17.700000
  C      5.590000   10.010000   18.900000
  C      5.700000   11.240000   19.850000
  C      4.070000    9.960000   18.460000
  O      3.210000   10.500000   19.140000
  O      3.840000    9.220000   17.380000
  C      2.460000    9.080000   16.900000
  C      2.100000   10.170000   15.880000
  C      0.750000    9.900000   15.200000
  C     -0.310000   10.680000   15.960000
  C      0.730000   10.460000   13.730000
  N      0.460000    8.440000   15.020000
  O     -0.740000    8.160000   14.700000
  C      1.270000    7.340000   15.660000
  C      0.440000    6.620000   16.770000
  C      1.410000    6.220000   14.620000
  C      2.600000    7.790000   16.180000
  C      6.090000    8.830000   19.720000
  C      5.680000    8.490000   21.230000
  C      6.500000    9.320000   22.230000
  C      6.150000    7.030000   21.540000
  O      5.790000    6.440000   22.550000
  O      7.280000    6.700000   20.860000
  C      8.020000    5.480000   21.180000
  C      9.340000    5.860000   20.610000
  C     10.380000    4.690000   20.920000
  C     10.860000    4.700000   22.390000
  C     11.700000    4.940000   20.100000
  N      9.910000    3.320000   20.540000
  O     10.650000    2.340000   20.540000
  C      8.460000    3.060000   20.420000
  C      8.040000    2.300000   21.750000
  C      8.140000    2.120000   19.220000
  C      7.600000    4.330000   20.310000
  C      4.200000    8.590000   21.760000
  C      3.010000    7.580000   21.370000
  C      3.240000    6.830000   20.030000
  C      2.860000    6.370000   22.370000
  O      2.390000    5.310000   21.980000
  O      3.130000    6.580000   23.750000
  C      3.220000    5.510000   24.650000
  C      4.230000    5.950000   25.700000
  C      4.610000    4.890000   26.730000
  C      5.460000    5.560000   27.820000
  C      5.420000    3.700000   26.160000
  N      3.320000    4.250000   27.310000
  O      3.360000    3.560000   28.350000
  C      2.110000    4.110000   26.440000
  C      2.180000    2.680000   25.820000
  C      0.950000    4.250000   27.420000
  C      1.930000    5.150000   25.330000
  C      1.660000    8.380000   21.290000
  C      0.860000    8.950000   22.570000
  C     -0.210000    7.960000   23.120000
  C      1.830000    9.340000   23.760000
  O      1.610000    8.920000   24.910000
  O      2.640000   10.320000   23.460000
  C      3.390000   10.950000   24.550000
  C      4.610000   10.220000   25.130000
  C      4.960000   10.860000   26.460000
  C      4.110000   10.440000   27.660000
  C      6.460000   10.340000   26.840000
  N      5.110000   12.330000   26.360000
  O      5.520000   12.990000   27.330000
  C      4.670000   13.090000   25.120000
  C      5.940000   13.620000   24.400000
  C      3.900000   14.270000   25.610000
  C      3.810000   12.330000   24.110000
  C      0.170000   10.260000   22.100000
  C     -1.120000   10.400000   21.190000
  C     -1.000000    9.490000   19.960000
  C     -1.100000   11.860000   20.740000
  O     -1.610000   12.720000   21.410000
  O     -0.200000   12.140000   19.730000
  C      0.280000   13.500000   19.560000
  C      1.450000   13.760000   20.540000
  C      1.780000   15.240000   20.620000
  C      3.220000   15.430000   21.110000
  C      0.800000   15.880000   21.680000
  N      1.680000   15.940000   19.340000
  O      2.160000   17.090000   19.220000
  C      1.060000   15.390000   18.080000
  C      2.200000   15.680000   17.040000
  C     -0.180000   16.230000   17.700000
  C      0.630000   13.870000   18.150000
  C     -2.420000   10.110000   22.010000
  H      8.370000   10.440000   15.850000
  H      6.830000   10.170000   14.990000
  H      7.630000   11.780000   14.930000
  H      5.490000   12.580000   15.540000
  H      4.690000   12.330000   17.120000
  H      4.760000   11.070000   15.840000
  H      8.330000   15.050000   17.700000
  H      6.510000   16.150000   16.830000
  H      5.420000   15.640000   18.110000
  H      7.410000   18.320000   16.710000
  H      8.720000   17.210000   17.240000
  H      8.400000   18.750000   18.100000
  H      5.930000   19.270000   18.740000
  H      5.000000   17.810000   19.280000
  H      5.110000   18.160000   17.600000
  H     10.060000   15.190000   20.840000
  H      9.700000   16.050000   19.230000
  H      9.790000   16.880000   20.790000
  H      7.770000   14.670000   22.330000
  H      6.640000   16.040000   22.070000
  H      8.290000   16.420000   22.490000
  H      6.280000   14.670000   20.110000
  H      7.850000   13.770000   20.140000
  H      6.240000    9.230000   17.070000
  H      7.520000    9.800000   17.990000
  H      6.700000   11.320000   20.290000
  H      4.950000   11.370000   20.630000
  H      5.450000   12.160000   19.340000
  H      1.700000    9.140000   17.680000
  H      1.940000   11.160000   16.310000
  H      2.900000   10.220000   15.140000
  H     -1.260000   10.600000   15.430000
  H     -0.510000   10.390000   17.000000
  H      0.020000   11.720000   15.990000
  H      1.530000   10.120000   13.070000
  H      0.880000   11.540000   13.800000
  H     -0.240000   10.270000   13.270000
  H      0.100000    7.340000   17.510000
  H     -0.520000    6.260000   16.380000
  H      1.020000    5.780000   17.170000
  H      2.160000    6.470000   13.860000
  H      1.840000    5.300000   15.010000
  H      0.460000    6.040000   14.120000
  H      3.280000    7.930000   15.330000
  H      2.840000    6.990000   16.880000
  H      7.180000    8.850000   19.800000
  H      5.940000    7.920000   19.130000
  H      6.250000   10.380000   22.280000
  H      6.440000    8.910000   23.240000
  H      7.570000    9.250000   22.000000
  H      8.180000    5.260000   22.230000
  H      9.620000    6.730000   21.200000
  H      9.260000    6.060000   19.540000
  H     11.300000    5.640000   22.740000
  H     11.650000    3.970000   22.530000
  H     10.100000    4.410000   23.120000
  H     12.260000    5.800000   20.440000
  H     12.390000    4.110000   20.240000
  H     11.410000    5.090000   19.060000
  H      8.650000    1.430000   21.980000
  H      7.030000    1.870000   21.690000
  H      8.030000    2.810000   22.710000
  H      7.070000    2.030000   19.030000
  H      8.550000    2.580000   18.310000
  H      8.690000    1.180000   19.370000
  H      6.570000    3.980000   20.400000
  H      7.540000    4.690000   19.280000
  H      3.900000    9.640000   21.700000
  H      4.360000    8.520000   22.830000
  H      2.360000    6.220000   19.870000
  H      4.070000    6.150000   20.190000
  H      3.390000    7.470000   19.150000
  H      3.640000    4.680000   24.080000
  H      3.970000    6.920000   26.130000
  H      5.120000    6.240000   25.140000
  H      5.720000    4.880000   28.640000
  H      5.130000    6.540000   28.180000
  H      6.410000    5.960000   27.440000
  H      5.210000    3.550000   25.100000
  H      6.460000    4.040000   26.220000
  H      5.380000    2.740000   26.670000
  H      2.480000    1.860000   26.480000
  H      1.280000    2.380000   25.290000
  H      2.920000    2.720000   25.020000
  H      0.940000    5.220000   27.910000
  H      0.010000    4.060000   26.910000
  H      0.850000    3.460000   28.170000
  H      1.570000    6.110000   25.690000
  H      1.250000    4.930000   24.510000
  H      1.820000    9.200000   20.590000
  H      0.990000    7.800000   20.660000
  H     -0.560000    8.340000   24.090000
  H      0.180000    6.980000   23.410000
  H     -1.090000    7.800000   22.500000
  H      2.710000   11.110000   25.390000
  H      5.450000   10.260000   24.440000
  H      4.360000    9.170000   25.290000
  H      4.150000    9.360000   27.800000
  H      3.120000   10.880000   27.570000
  H      4.550000   10.870000   28.560000
  H      6.830000   10.730000   27.790000
  H      7.220000   10.610000   26.110000
  H      6.460000    9.250000   26.920000
  H      6.730000   13.920000   25.090000
  H      5.720000   14.500000   23.800000
  H      6.270000   12.910000   23.640000
  H      4.610000   15.080000   25.810000
  H      3.290000   14.040000   26.480000
  H      3.180000   14.590000   24.860000
  H      4.210000   12.210000   23.110000
  H      2.860000   12.840000   23.980000
  H      0.000000   10.880000   22.980000
  H      0.980000   10.800000   21.600000
  H     -1.200000    8.440000   20.190000
  H     -1.760000    9.710000   19.200000
  H     -0.070000    9.490000   19.390000
  H     -0.520000   14.160000   19.910000
  H      2.330000   13.210000   20.220000
  H      1.080000   13.370000   21.490000
  H      3.840000   15.110000   20.270000
  H      3.600000   14.870000   21.960000
  H      3.510000   16.440000   21.390000
  H      0.850000   16.940000   21.440000
  H     -0.190000   15.460000   21.470000
  H      1.100000   15.840000   22.720000
  H      1.910000   15.470000   16.010000
  H      2.460000   16.740000   17.070000
  H      3.090000   15.090000   17.260000
  H     -0.970000   16.030000   18.430000
  H     -0.410000   16.160000   16.630000
  H      0.040000   17.290000   17.810000
  H      1.460000   13.220000   17.870000
  H     -0.210000   13.690000   17.470000
  H     -2.580000    9.090000   22.350000
  H     -2.380000   10.600000   22.980000
  H     -3.270000   10.540000   21.480000