  239
chainlength_6ptma_33.33%rad_time_0.0005ps
 C    18.860  19.170  26.130
   C    17.400  19.580  25.810
   C    16.930  18.670  24.660
   C    17.480  21.030  25.320
   O    17.310  21.370  24.150
   O    17.920  21.860  26.300
   C    18.480  23.130  25.890
   C    17.410  24.190  25.660
   C    18.050  25.520  25.160
   C    18.170  25.430  23.610
   C    17.050  26.660  25.480
   N    19.450  25.690  25.690
   H    19.800  26.720  25.590
   C    19.730  25.110  27.030
   C    21.240  25.220  27.370
   C    18.950  25.780  28.190
   C    19.410  23.580  27.030
   C    16.560  19.410  27.130
   C    14.990  19.260  27.130
   C    14.370  20.420  26.350
   C    14.610  17.880  26.530
   O    13.760  17.720  25.660
   O    15.310  16.880  27.120
   C    14.920  15.500  26.870
   C    15.910  14.810  25.930
   C    16.970  13.920  26.620
   C    17.810  13.260  25.490
   C    17.980  14.810  27.400
   N    16.390  12.990  27.630
   O    16.510  11.610  27.260
   C    15.020  13.280  28.140
   C    13.850  12.660  27.340
   C    14.930  12.740  29.600
   C    14.810  14.810  28.220
   C    14.540  19.240  28.630
   C    13.070  19.520  29.200
   C    12.930  21.050  29.370
   C    13.140  18.790  30.560
   O    13.160  17.560  30.640
   O    13.310  19.620  31.630
   C    13.640  18.970  32.880
   C    12.420  18.340  33.550
   C    12.780  17.640  34.900
   C    13.510  16.310  34.580
   C    11.420  17.280  35.550
   N    13.510  18.590  35.770
   O    13.930  17.950  36.990
   C    14.600  19.430  35.210
   C    15.980  18.720  35.050
   C    14.820  20.650  36.150
   C    14.190  20.020  33.840
   C    11.890  18.960  28.290
   C    10.440  18.550  28.730
   C    10.480  17.460  29.860
   C    9.470  19.580  29.330
   O    8.250  19.420  29.290
   O    10.070  20.540  30.080
   C    9.200  21.300  30.960
   C    9.950  21.700  32.230
   C    10.130  23.220  32.470
   C    11.240  23.790  31.560
   C    10.690  23.370  33.930
   N    8.900  24.010  32.190
   O    8.260  24.530  33.370
   C    7.900  23.470  31.230
   C    6.690  22.750  31.880
   C    7.360  24.660  30.400
   C    8.570  22.480  30.240
   C    9.720  17.810  27.530
   C    9.330  18.460  26.150
   C    8.030  17.730  25.690
   C    8.860  19.940  26.250
   O    7.730  20.270  26.580
   O    9.820  20.820  25.850
   C    9.290  22.020  25.240
   C    9.110  23.160  26.230
   C    8.390  24.370  25.540
   C    6.860  24.150  25.700
   C    8.760  25.650  26.330
   N    8.680  24.380  24.070
   O    8.340  25.650  23.490
   C    10.020  23.910  23.620
   C    11.200  24.800  24.090
   C    10.080  23.830  22.070
   C    10.260  22.450  24.130
   C    10.430  18.310  25.030
   C    10.680  17.000  24.190
   C    10.960  15.780  25.080
   C    11.860  17.270  23.210
   O    12.030  18.330  22.630
   O    12.540  16.110  22.930
   C    13.400  16.090  21.750
   C    14.610  15.220  22.060
   C    15.490  14.930  20.820
   C    16.390  13.720  21.210
   C    16.420  16.150  20.590
   N    14.690  14.780  19.570
   H    15.180  14.140  18.840
   C    13.250  14.440  19.700
   C    12.970  13.040  20.310
   C    12.530  14.490  18.340
   C    12.570  15.550  20.570
   C    9.520  16.660  23.220
   H    18.920  18.110  26.400
   H    19.500  19.350  25.270
   H    19.240  19.730  26.980
   H    16.940  17.630  24.970
   H    17.580  18.750  23.790
   H    15.930  18.940  24.300
   H    19.080  22.970  24.990
   H    16.670  23.800  24.950
   H    16.860  24.330  26.590
   H    18.870  24.650  23.310
   H    18.510  26.370  23.180
   H    17.210  25.200  23.150
   H    16.070  26.400  25.090
   H    17.340  27.600  25.010
   H    16.940  26.860  26.540
   H    21.560  26.250  27.550
   H    21.480  24.670  28.280
   H    21.850  24.810  26.570
   H    17.880  25.600  28.120
   H    19.120  26.860  28.250
   H    19.270  25.380  29.150
   H    18.970  23.290  27.980
   H    20.320  22.980  26.930
   H    16.980  18.560  27.660
   H    16.800  20.270  27.770
   H    13.280  20.360  26.320
   H    14.710  20.450  25.320
   H    14.620  21.380  26.810
   H    13.940  15.480  26.380
   H    15.350  14.190  25.220
   H    16.390  15.560  25.310
   H    17.190  12.630  24.840
   H    18.260  14.030  24.860
   H    18.630  12.670  25.890
   H    18.770  14.210  27.840
   H    17.520  15.380  28.210
   H    18.450  15.540  26.730
   H    12.900  13.020  27.720
   H    13.880  12.900  26.280
   H    13.830  11.570  27.410
   H    14.980  11.650  29.630
   H    15.750  13.130  30.210
   H    13.990  13.020  30.060
   H    15.500  15.260  28.940
   H    13.830  15.040  28.640
   H    15.200  19.920  29.180
   H    14.850  18.270  29.020
   H    12.700  21.550  28.420
   H    12.170  21.310  30.100
   H    13.850  21.500  29.760
   H    14.430  18.230  32.680
   H    11.940  17.620  32.890
   H    11.670  19.120  33.700
   H    13.710  15.730  35.480
   H    14.470  16.480  34.070
   H    12.910  15.690  33.920
   H    10.850  18.170  35.820
   H    10.810  16.690  34.860
   H    11.530  16.690  36.460
   H    16.720  19.420  34.660
   H    15.950  17.890  34.340
   H    16.370  18.360  36.000
   H    13.880  21.170  36.320
   H    15.220  20.350  37.120
   H    15.540  21.340  35.700
   H    15.020  20.540  33.360
   H    13.420  20.780  33.950
   H    12.310  18.070  27.820
   H    11.730  19.670  27.480
   H    11.170  16.660  29.590
   H    9.490  17.030  29.980
   H    10.720  17.880  30.830
   H    8.400  20.630  31.260
   H    10.910  21.200  32.250
   H    9.390  21.280  33.070
   H    12.180  23.240  31.680
   H    11.460  24.830  31.780
   H    11.010  23.730  30.500
   H    10.910  24.410  34.170
   H    10.020  22.960  34.680
   H    11.640  22.840  34.000
   H    6.080  22.260  31.120
   H    7.000  21.980  32.580
   H    6.030  23.430  32.410
   H    8.170  25.200  29.910
   H    6.670  24.330  29.630
   H    6.810  25.370  31.020
   H    9.300  22.970  29.600
   H    7.840  22.100  29.530
   H    10.300  16.920  27.310
   H    8.790  17.430  27.950
   H    8.160  16.650  25.690
   H    7.720  18.070  24.700
   H    7.210  17.910  26.380
   H    8.340  21.780  24.770
   H    10.090  23.460  26.600
   H    8.560  22.820  27.100
   H    6.610  24.050  26.750
   H    6.520  23.250  25.190
   H    6.280  24.990  25.310
   H    8.550  25.500  27.390
   H    8.170  26.510  26.030
   H    9.810  25.920  26.220
   H    11.080  25.840  23.790
   H    12.130  24.460  23.630
   H    11.350  24.780  25.170
   H    9.250  23.250  21.660
   H    11.010  23.360  21.730
   H    10.050  24.810  21.610
   H    11.280  22.320  24.500
   H    10.140  21.730  23.320
   H    10.220  19.070  24.280
   H    11.380  18.620  25.470
   H    10.090  15.530  25.690
   H    11.230  14.890  24.520
   H    11.800  15.980  25.760
   H    13.740  17.100  21.530
   H    14.280  14.300  22.540
   H    15.200  15.720  22.840
   H    15.800  12.810  21.320
   H    16.890  13.920  22.150
   H    17.170  13.520  20.470
   H    17.140  15.960  19.790
   H    15.870  17.050  20.350
   H    17.000  16.360  21.490
   H    11.900  12.850  20.360
   H    13.420  12.250  19.710
   H    13.360  12.930  21.320
   H    11.450  14.400  18.470
   H    12.830  13.680  17.670
   H    12.720  15.440  17.830
   H    11.610  15.180  20.920
   H    12.350  16.420  19.950
   H    9.110  17.560  22.760
   H    9.850  15.990  22.420
   H    8.700  16.140  23.710
  
