  239
chainlength_6ptma_33.33%rad_time_500ps
 C    19.150  15.890  23.790
   C    17.760  15.800  23.130
   C    17.470  14.360  22.670
   C    17.790  16.720  21.830
   O    17.250  16.420  20.800
   O    18.540  17.790  22.020
   C    19.040  18.600  20.970
   C    18.060  19.680  20.620
   C    18.590  20.560  19.460
   C    18.410  19.970  18.030
   C    17.890  21.930  19.580
   N    20.090  20.810  19.550
   H    20.470  21.770  19.220
   C    21.040  19.790  20.150
   C    21.480  18.690  19.240
   C    22.280  20.540  20.580
   C    20.350  19.280  21.430
   C    16.830  16.370  24.240
   C    15.300  16.400  24.200
   C    14.850  17.120  22.820
   C    14.600  15.010  24.310
   O    13.400  14.790  24.030
   O    15.520  14.090  24.690
   C    15.210  12.820  25.310
   C    14.860  11.790  24.220
   C    14.380  10.480  24.720
   C    12.820  10.490  25.000
   C    14.610  9.450  23.580
   N    15.100  10.010  25.980
   O    15.040  8.800  26.250
   C    15.840  10.990  26.870
   C    14.900  11.370  27.970
   C    17.110  10.350  27.450
   C    16.290  12.280  26.160
   C    14.860  17.380  25.420
   C    13.420  17.560  25.960
   C    13.500  18.880  26.730
   C    13.190  16.390  26.940
   O    14.050  15.500  27.110
   O    12.380  16.810  27.980
   C    12.570  16.290  29.360
   C    12.120  14.810  29.540
   C    12.490  14.280  30.980
   C    13.910  13.690  30.910
   C    11.480  13.180  31.310
   N    12.400  15.300  32.050
   O    12.740  15.060  33.220
   C    12.080  16.780  31.750
   C    13.260  17.680  32.240
   C    10.810  17.120  32.590
   C    11.740  17.120  30.360
   C    12.210  17.680  24.830
   C    10.670  17.520  25.130
   C    10.380  16.000  25.390
   C    9.990  18.270  26.260
   O    9.200  17.810  27.020
   O    10.400  19.630  26.320
   C    9.810  20.400  27.320
   C    10.560  20.190  28.690
   C    9.760  20.720  29.850
   C    10.650  21.050  31.080
   C    8.790  19.640  30.360
   N    8.910  21.960  29.510
   O    8.330  22.520  30.430
   C    8.810  22.580  28.100
   C    7.330  22.560  27.670
   C    9.290  24.020  28.300
   C    9.750  21.880  27.070
   C    10.050  17.760  23.610
   C    8.950  18.840  23.250
   C    7.750  18.570  24.220
   C    9.570  20.320  23.470
   O    8.890  21.350  23.560
   O    10.870  20.360  23.450
   C    11.650  21.470  23.010
   C    11.990  22.330  24.180
   C    13.070  23.350  23.990
   C    12.490  24.520  23.180
   C    13.650  23.800  25.330
   N    14.200  22.880  23.080
   O    15.200  23.490  22.990
   C    13.980  21.750  22.120
   C    15.320  20.950  21.990
   C    13.670  22.280  20.760
   C    12.930  20.750  22.630
   C    8.440  18.980  21.760
   C    7.990  17.790  20.880
   C    6.700  17.060  21.530
   C    9.060  16.740  20.490
   O    8.770  15.630  20.040
   O    10.270  17.210  20.510
   C    11.420  16.650  19.820
   C    12.390  17.700  19.780
   C    13.520  17.240  18.910
   C    14.740  18.220  18.960
   C    13.190  17.110  17.380
   N    14.050  15.950  19.310
   H    15.110  15.870  19.520
   C    13.150  14.880  19.840
   C    13.940  14.010  20.860
   C    12.920  13.930  18.660
   C    11.830  15.420  20.540
   C    7.440  18.370  19.550
   H    19.180  15.240  24.660
   H    20.040  15.670  23.200
   H    19.370  16.850  24.240
   H    17.760  13.660  23.460
   H    18.060  14.070  21.800
   H    16.450  14.090  22.380
   H    19.170  18.010  20.060
   H    17.010  19.460  20.430
   H    17.830  20.330  21.470
   H    19.370  20.100  17.530
   H    17.610  20.450  17.460
   H    18.200  18.900  18.090
   H    18.170  22.350  20.540
   H    16.800  21.900  19.560
   H    18.310  22.640  18.870
   H    22.410  18.900  18.710
   H    21.680  17.770  19.790
   H    20.790  18.450  18.430
   H    22.870  20.790  19.700
   H    22.930  20.030  21.290
   H    22.110  21.420  21.200
   H    20.110  19.970  22.250
   H    20.970  18.490  21.840
   H    17.210  15.960  25.170
   H    17.150  17.410  24.210
   H    15.550  17.950  22.670
   H    13.880  17.610  22.880
   H    14.890  16.500  21.930
   H    14.320  13.060  25.890
   H    14.160  12.150  23.470
   H    15.760  11.700  23.600
   H    12.550  11.240  25.740
   H    12.250  10.600  24.080
   H    12.370  9.630  25.500
   H    14.800  9.920  22.610
   H    13.780  8.760  23.440
   H    15.540  8.890  23.740
   H    14.870  10.640  28.780
   H    15.140  12.310  28.480
   H    13.890  11.520  27.580
   H    17.620  9.620  26.830
   H    17.840  11.150  27.520
   H    17.060  10.070  28.500
   H    17.240  12.110  25.650
   H    16.560  13.060  26.870
   H    15.120  18.390  25.110
   H    15.550  17.220  26.250
   H    13.580  19.790  26.130
   H    12.660  19.140  27.370
   H    14.260  19.020  27.500
   H    13.620  16.460  29.620
   H    12.370  14.130  28.720
   H    11.030  14.870  29.550
   H    14.600  14.480  30.600
   H    14.070  12.850  30.230
   H    14.310  13.550  31.910
   H    11.520  12.230  30.790
   H    11.700  12.810  32.310
   H    10.460  13.540  31.410
   H    13.310  17.710  33.330
   H    13.210  18.740  32.000
   H    14.250  17.410  31.860
   H    10.490  18.150  32.480
   H    9.930  16.510  32.390
   H    10.940  16.910  33.650
   H    11.880  18.160  30.100
   H    10.660  16.950  30.290
   H    12.440  16.910  24.090
   H    12.260  18.690  24.430
   H    10.490  15.760  26.440
   H    11.090  15.370  24.860
   H    9.370  15.600  25.300
   H    8.780  20.090  27.520
   H    11.600  20.490  28.610
   H    10.680  19.120  28.870
   H    11.040  22.060  30.970
   H    11.450  20.320  31.230
   H    10.190  21.060  32.070
   H    9.280  18.680  30.540
   H    8.360  20.100  31.250
   H    8.020  19.370  29.630
   H    6.820  21.780  28.230
   H    6.770  23.470  27.890
   H    7.340  22.380  26.590
   H    8.820  24.520  29.140
   H    10.310  23.830  28.660
   H    9.390  24.750  27.500
   H    10.760  22.270  27.190
   H    9.390  22.110  26.060
   H    10.780  17.880  22.810
   H    9.510  16.900  23.220
   H    6.740  18.740  23.850
   H    7.710  19.250  25.070
   H    7.730  17.600  24.710
   H    11.200  21.950  22.140
   H    12.270  21.760  25.070
   H    11.010  22.790  24.370
   H    12.000  24.260  22.250
   H    13.140  25.370  23.000
   H    11.620  24.960  23.680
   H    14.160  22.940  25.770
   H    12.880  24.240  25.970
   H    14.370  24.610  25.200
   H    15.510  20.280  22.830
   H    16.130  21.670  21.930
   H    15.300  20.240  21.160
   H    13.270  21.560  20.050
   H    14.430  22.890  20.270
   H    12.840  22.980  20.900
   H    13.310  20.300  23.540
   H    12.580  20.000  21.910
   H    7.650  19.720  21.700
   H    9.290  19.370  21.190
   H    6.090  17.840  21.980
   H    6.050  16.500  20.860
   H    7.010  16.370  22.320
   H    11.110  16.330  18.830
   H    12.730  17.800  20.810
   H    11.890  18.570  19.360
   H    14.990  18.350  20.020
   H    14.610  19.190  18.480
   H    15.590  17.750  18.450
   H    13.920  16.500  16.840
   H    12.170  16.760  17.220
   H    13.410  18.040  16.850
   H    13.890  14.410  21.870
   H    13.490  13.020  20.920
   H    15.010  14.000  20.660
   H    13.840  13.350  18.570
   H    12.600  14.470  17.770
   H    12.100  13.270  18.940
   H    12.100  15.740  21.540
   H    11.170  14.560  20.590
   H    7.140  17.520  18.950
   H    6.670  19.150  19.600
   H    8.280  18.850  19.050
  
