  239
chainlength_6ptma_33.33%rad_time_5ps
 C    17.090  18.420  26.750
   C    16.180  19.150  25.760
   C    15.550  18.060  24.810
   C    17.060  20.220  24.990
   O    16.960  20.370  23.760
   O    18.000  20.890  25.710
   C    18.720  21.980  25.170
   C    18.130  23.240  25.750
   C    18.800  24.450  25.200
   C    18.500  24.720  23.720
   C    18.230  25.610  26.090
   N    20.280  24.310  25.350
   H    20.910  25.200  25.410
   C    21.070  23.030  25.180
   C    21.680  23.110  23.760
   C    22.160  22.980  26.300
   C    20.180  21.830  25.520
   C    15.180  19.940  26.650
   C    13.630  19.930  26.370
   C    13.290  20.170  24.890
   C    12.920  18.540  26.680
   O    11.790  18.260  26.250
   O    13.740  17.620  27.290
   C    13.260  16.280  27.520
   C    13.660  15.300  26.470
   C    13.210  13.890  26.800
   C    11.820  13.660  26.290
   C    14.070  12.830  26.080
   N    13.220  13.580  28.240
   O    12.820  12.440  28.540
   C    13.610  14.560  29.360
   C    12.400  14.800  30.270
   C    14.830  13.960  30.230
   C    14.050  15.870  28.740
   C    12.990  21.140  27.200
   C    12.050  21.160  28.530
   C    11.840  22.650  29.010
   C    12.670  20.410  29.700
   O    13.550  19.590  29.520
   O    12.330  21.020  30.910
   C    12.890  20.520  32.080
   C    11.910  20.750  33.160
   C    12.340  20.310  34.610
   C    11.880  18.880  35.020
   C    11.690  21.260  35.650
   N    13.830  20.350  34.860
   O    14.210  20.270  36.030
   C    14.850  20.540  33.740
   C    15.410  19.150  33.450
   C    16.040  21.380  34.320
   C    14.220  21.240  32.550
   C    10.620  20.610  28.180
   C    9.700  19.640  29.040
   C    10.420  18.470  29.780
   C    8.780  20.390  30.030
   O    7.680  19.970  30.260
   O    9.220  21.560  30.370
   C    8.340  22.530  30.980
   C    8.180  22.300  32.470
   C    7.580  23.430  33.310
   C    8.080  23.250  34.750
   C    6.060  23.220  33.380
   N    7.780  24.810  32.830
   O    7.360  25.810  33.450
   C    8.310  25.130  31.470
   C    7.110  25.480  30.600
   C    9.360  26.260  31.510
   C    8.960  23.910  30.800
   C    8.900  18.830  27.960
   C    7.960  19.400  26.770
   C    6.480  18.940  26.940
   C    7.830  20.990  26.730
   O    6.980  21.710  27.290
   O    8.670  21.520  25.850
   C    8.520  22.730  25.210
   C    9.810  23.570  25.550
   C    9.910  24.930  24.840
   C    8.960  26.030  25.340
   C    11.320  25.440  25.070
   N    9.610  24.710  23.360
   O    9.980  25.580  22.610
   C    8.710  23.640  22.830
   C    9.370  23.130  21.510
   C    7.380  24.310  22.430
   C    8.650  22.430  23.740
   C    8.590  18.920  25.360
   C    8.370  17.490  24.770
   C    8.490  16.300  25.770
   C    9.350  17.310  23.590
   O    9.770  18.350  23.030
   O    9.780  16.020  23.320
   C    10.530  15.690  22.140
   C    11.920  15.230  22.590
   C    12.880  14.900  21.450
   C    13.800  13.690  21.790
   C    13.850  16.080  21.110
   N    12.230  14.470  20.200
   H    12.900  14.340  19.350
   C    10.780  14.070  20.150
   C    10.560  12.600  19.880
   C    10.250  14.830  18.930
   C    10.000  14.470  21.410
   C    6.920  17.360  24.200
   H    16.530  17.810  27.450
   H    17.900  17.840  26.310
   H    17.570  19.190  27.350
   H    15.290  18.520  23.850
   H    14.680  17.450  25.060
   H    16.370  17.390  24.560
   H    18.630  22.010  24.080
   H    17.060  23.220  25.540
   H    18.190  23.180  26.840
   H    18.540  23.830  23.090
   H    19.080  25.530  23.260
   H    17.490  25.100  23.550
   H    18.430  25.280  27.110
   H    17.150  25.710  26.110
   H    18.610  26.610  25.880
   H    22.480  22.380  23.650
   H    20.940  22.940  22.980
   H    22.040  24.120  23.550
   H    21.580  23.200  27.200
   H    22.850  23.800  26.130
   H    22.740  22.060  26.360
   H    20.180  21.730  26.610
   H    20.560  20.940  25.030
   H    15.270  19.680  27.700
   H    15.530  20.970  26.710
   H    12.310  20.630  24.840
   H    13.330  19.240  24.330
   H    14.050  20.790  24.420
   H    12.200  16.220  27.800
   H    13.210  15.570  25.510
   H    14.740  15.270  26.340
   H    11.910  13.430  25.220
   H    11.320  12.850  26.820
   H    11.180  14.550  26.320
   H    14.010  12.870  24.990
   H    13.610  11.860  26.270
   H    15.070  12.810  26.510
   H    12.770  15.540  30.980
   H    11.550  15.150  29.700
   H    12.100  13.900  30.800
   H    15.640  13.620  29.590
   H    15.200  14.560  31.060
   H    14.500  13.020  30.670
   H    15.100  15.700  28.520
   H    14.060  16.650  29.510
   H    12.510  21.860  26.530
   H    13.780  21.750  27.630
   H    11.080  22.800  29.780
   H    12.680  23.120  29.530
   H    11.500  23.240  28.160
   H    13.020  19.440  31.990
   H    10.950  20.360  32.840
   H    11.720  21.820  33.120
   H    11.980  18.600  36.070
   H    12.420  18.170  34.390
   H    10.840  18.590  34.860
   H    12.110  22.260  35.640
   H    10.610  21.310  35.480
   H    11.850  20.850  36.650
   H    14.690  18.550  32.900
   H    15.740  18.660  34.370
   H    16.320  19.160  32.840
   H    15.630  22.050  35.070
   H    16.810  20.810  34.830
   H    16.690  21.960  33.670
   H    14.820  21.200  31.640
   H    13.990  22.270  32.830
   H    10.650  20.130  27.200
   H    10.050  21.510  27.970
   H    11.240  18.050  29.190
   H    9.720  17.670  30.030
   H    10.880  18.880  30.680
   H    7.350  22.470  30.510
   H    9.160  22.110  32.910
   H    7.680  21.370  32.740
   H    7.590  23.880  35.500
   H    9.110  23.590  34.850
   H    8.000  22.220  35.090
   H    5.580  23.950  34.040
   H    5.560  23.260  32.410
   H    5.770  22.250  33.770
   H    7.440  25.610  29.570
   H    6.290  24.770  30.530
   H    6.670  26.400  31.000
   H    10.070  26.110  32.320
   H    9.830  26.300  30.530
   H    8.930  27.230  31.770
   H    9.890  23.920  31.360
   H    9.380  24.210  29.830
   H    9.600  18.080  27.600
   H    8.170  18.260  28.540
   H    6.410  17.850  26.900
   H    5.850  19.430  26.190
   H    6.060  19.260  27.890
   H    7.570  23.240  25.350
   H    10.700  22.950  25.430
   H    9.680  23.790  26.610
   H    9.120  26.910  24.720
   H    9.180  26.200  26.390
   H    7.900  25.780  25.200
   H    11.730  25.410  26.080
   H    11.440  26.490  24.810
   H    11.980  24.820  24.460
   H    10.460  23.170  21.630
   H    9.080  23.700  20.630
   H    9.200  22.090  21.210
   H    6.810  24.600  23.320
   H    6.710  23.700  21.830
   H    7.610  25.200  21.850
   H    9.540  21.840  23.560
   H    7.890  21.760  23.340
   H    8.200  19.560  24.570
   H    9.660  19.120  25.380
   H    7.850  16.390  26.650
   H    8.220  15.300  25.410
   H    9.490  16.260  26.200
   H    10.730  16.550  21.500
   H    11.840  14.310  23.150
   H    12.300  16.030  23.230
   H    14.360  13.230  20.970
   H    13.160  12.900  22.200
   H    14.540  13.910  22.550
   H    14.580  16.010  20.300
   H    13.390  17.050  20.930
   H    14.530  16.250  21.950
   H    11.060  12.150  19.020
   H    10.860  12.030  20.760
   H    9.480  12.550  19.780
   H    9.350  14.470  18.420
   H    10.940  14.920  18.090
   H    9.970  15.840  19.230
   H    9.900  13.640  22.110
   H    8.980  14.690  21.100
   H    6.340  16.470  24.450
   H    6.330  18.230  24.500
   H    6.830  17.390  23.120
  
