239
PTMA_CHAIN9_time8
 C    84.150  44.530  51.470
   C    83.290  43.850  52.650
   C    84.300  43.390  53.740
   C    82.520  42.680  52.040
   O    82.460  41.550  52.560
   O    81.820  43.000  50.920
   C    81.010  42.040  50.150
   C    79.520  42.320  50.370
   C    78.620  41.350  49.520
   C    78.220  40.090  50.350
   C    77.380  42.150  48.920
   N    79.420  40.770  48.400
   H    79.130  39.790  48.030
   C    80.660  41.340  47.790
   C    81.480  40.110  47.330
   C    80.190  41.980  46.520
   C    81.410  42.260  48.700
   C    82.390  44.940  53.250
   C    81.350  44.700  54.480
   C    81.970  43.840  55.670
   C    81.160  46.170  55.060
   O    81.450  46.470  56.230
   O    80.970  47.020  54.120
   C    80.760  48.410  54.500
   C    81.080  49.200  53.210
   C    81.130  50.680  53.540
   C    82.580  51.080  53.950
   C    80.630  51.500  52.350
   N    80.150  51.130  54.600
   H    79.890  52.190  54.700
   C    79.490  50.210  55.490
   C    80.240  50.240  56.820
   C    78.020  50.740  55.700
   C    79.390  48.810  54.930
   C    80.040  43.840  53.970
   C    78.620  43.950  54.560
   C    77.810  42.750  53.970
   C    78.020  45.280  54.060
   O    78.600  45.930  53.160
   O    76.710  45.250  54.190
   C    75.830  46.110  53.500
   C    74.900  46.770  54.480
   C    74.000  47.700  53.770
   C    74.680  49.100  53.560
   C    72.710  48.100  54.570
   N    73.550  47.190  52.470
   H    72.730  47.690  51.950
   C    74.010  45.940  51.780
   C    74.720  46.240  50.430
   C    72.880  44.980  51.480
   C    75.080  45.230  52.570
   C    78.710  43.900  56.200
   C    77.640  44.120  57.260
   C    77.040  45.550  57.240
   C    76.480  43.190  57.120
   O    76.650  42.020  56.840
   O    75.230  43.730  57.350
   C    74.080  42.870  57.110
   C    72.900  43.440  57.920
   C    71.770  42.440  57.800
   C    70.480  43.230  58.060
   C    71.930  41.340  58.860
   N    71.650  41.840  56.420
   H    70.850  41.130  56.220
   C    72.600  41.890  55.320
   C    73.200  40.500  55.050
   C    71.790  42.420  54.090
   C    73.640  42.990  55.660
   C    78.170  43.950  58.710
   C    78.320  42.590  59.580
   C    78.820  43.090  60.960
   C    76.950  41.880  59.890
   O    75.970  42.570  60.230
   O    76.880  40.600  59.560
   C    75.740  39.760  59.900
   C    75.510  38.870  58.740
   C    74.460  37.770  58.930
   C    73.260  37.960  57.990
   C    75.100  36.370  58.790
   N    73.850  37.940  60.280
   H    72.820  37.630  60.410
   C    74.630  38.310  61.490
   C    74.880  37.180  62.500
   C    73.760  39.270  62.250
   C    75.910  38.960  61.190
   C    79.390  41.700  58.890
   C    80.430  40.860  59.700
   C    79.650  39.780  60.520
   C    81.480  41.660  60.590
   O    81.670  41.460  61.820
   O    82.060  42.590  59.800
   C    82.800  43.620  60.360
   C    84.200  43.410  59.770
   C    85.200  44.420  60.250
   C    86.440  44.230  59.430
   C    85.630  44.200  61.740
   N    84.700  45.800  59.990
   O    85.450  46.700  59.570
   C    83.280  46.130  60.340
   C    82.730  47.460  59.720
   C    83.120  46.520  61.790
   C    82.320  45.000  59.940
   C    81.340  40.000  58.730
   H    83.630  45.240  50.830
   H    84.980  45.060  51.960
   H    84.680  43.740  50.940
   H    84.650  44.190  54.390
   H    85.140  42.970  53.180
   H    84.010  42.520  54.310
   H    81.350  41.040  50.430
   H    79.210  42.210  51.410
   H    79.450  43.390  50.180
   H    79.050  39.490  50.720
   H    77.480  39.470  49.840
   H    77.560  40.340  51.190
   H    76.700  42.440  49.730
   H    76.800  41.500  48.270
   H    77.750  43.080  48.480
   H    81.590  39.360  48.110
   H    81.120  39.600  46.430
   H    82.440  40.540  47.040
   H    81.060  42.280  45.930
   H    79.480  42.810  46.560
   H    79.710  41.170  45.970
   H    81.090  43.250  48.400
   H    82.490  42.350  48.590
   H    83.170  45.660  53.510
   H    81.750  45.380  52.490
   H    81.290  43.900  56.520
   H    82.890  44.280  56.060
   H    82.210  42.800  55.450
   H    81.450  48.690  55.290
   H    82.030  48.940  52.740
   H    80.420  48.880  52.400
   H    82.610  52.120  54.280
   H    82.970  50.500  54.780
   H    83.360  51.040  53.190
   H    81.360  51.440  51.550
   H    80.600  52.580  52.500
   H    79.690  51.030  52.050
   H    81.300  50.460  56.640
   H    79.900  51.110  57.370
   H    80.270  49.270  57.310
   H    77.580  50.340  56.610
   H    77.890  51.820  55.820
   H    77.420  50.410  54.850
   H    78.680  48.740  54.100
   H    79.110  48.080  55.680
   H    80.320  42.790  53.860
   H    79.830  43.940  52.900
   H    77.590  42.910  52.920
   H    78.350  41.810  53.900
   H    76.790  42.590  54.340
   H    76.360  46.910  52.980
   H    75.430  47.290  55.270
   H    74.370  45.920  54.900
   H    74.760  49.730  54.440
   H    74.040  49.760  52.980
   H    75.690  49.130  53.140
   H    72.860  48.970  55.200
   H    71.790  48.110  53.980
   H    72.500  47.250  55.210
   H    75.720  46.660  50.540
   H    74.000  46.820  49.850
   H    74.780  45.320  49.860
   H    72.220  45.290  50.670
   H    73.150  43.980  51.170
   H    72.290  44.910  52.390
   H    75.670  44.640  51.860
   H    74.670  44.460  53.220
   H    79.430  44.680  56.460
   H    79.150  42.920  56.420
   H    77.820  46.300  57.390
   H    76.320  45.650  58.060
   H    76.420  45.750  56.370
   H    74.210  41.840  57.440
   H    72.650  44.470  57.660
   H    73.220  43.470  58.960
   H    70.460  44.220  57.600
   H    70.320  43.450  59.120
   H    69.590  42.740  57.690
   H    71.290  40.460  58.790
   H    72.970  41.000  58.870
   H    71.730  41.680  59.870
   H    72.360  39.800  55.040
   H    73.680  40.440  54.080
   H    73.950  40.170  55.760
   H    71.450  43.460  54.050
   H    72.440  42.410  53.220
   H    70.960  41.770  53.820
   H    73.200  43.960  55.400
   H    74.480  42.900  54.980
   H    79.060  44.550  58.870
   H    77.500  44.430  59.420
   H    79.550  43.890  60.890
   H    79.090  42.350  61.710
   H    77.980  43.550  61.480
   H    74.880  40.430  59.860
   H    76.500  38.550  58.410
   H    75.240  39.540  57.920
   H    73.560  38.070  56.950
   H    72.770  38.870  58.340
   H    72.580  37.110  58.030
   H    75.530  36.120  57.820
   H    74.330  35.690  59.150
   H    75.940  36.370  59.480
   H    75.070  37.560  63.510
   H    75.700  36.540  62.190
   H    74.020  36.520  62.410
   H    74.300  39.920  62.950
   H    72.950  38.710  62.720
   H    73.270  39.950  61.560
   H    76.670  38.210  61.000
   H    76.360  39.540  62.000
   H    78.910  41.020  58.180
   H    80.040  42.320  58.280
   H    78.950  40.190  61.250
   H    79.060  39.170  59.830
   H    80.350  39.180  61.090
   H    82.840  43.500  61.450
   H    84.160  43.400  58.680
   H    84.500  42.380  59.940
   H    86.750  43.190  59.350
   H    87.270  44.850  59.790
   H    86.210  44.570  58.420
   H    84.830  43.750  62.320
   H    86.320  43.350  61.770
   H    86.230  45.010  62.150
   H    81.670  47.620  59.910
   H    83.280  48.330  60.070
   H    82.860  47.340  58.650
   H    83.830  47.210  62.250
   H    83.320  45.640  62.390
   H    82.110  46.850  62.070
   H    82.110  45.050  58.870
   H    81.330  45.040  60.390
   H    82.000  40.590  58.100
   H    81.880  39.280  59.340
   H    80.770  39.410  58.010
  