239
PTMA_CHAIN3_time0point5
 C    104.650  55.770  68.990
   C    105.980  56.430  68.730
   C    106.900  55.370  68.130
   C    106.510  56.940  70.090
   O    107.580  56.510  70.540
   O    105.660  57.810  70.630
   C    105.470  58.000  72.020
   C    105.500  59.470  72.070
   C    105.050  60.040  73.410
   C    106.060  59.840  74.520
   C    104.970  61.570  73.220
   N    103.790  59.450  73.750
   O    102.900  60.200  74.210
   C    103.480  58.000  73.570
   C    103.820  57.130  74.810
   C    101.950  57.790  73.330
   C    104.110  57.410  72.260
   C    105.560  57.590  67.720
   C    106.620  58.530  67.140
   C    107.780  58.910  68.060
   C    107.330  57.770  65.990
   O    108.560  57.690  65.950
   O    106.530  57.120  65.050
   C    107.250  56.470  63.930
   C    107.750  55.150  64.440
   C    107.860  54.000  63.340
   C    109.160  53.260  63.460
   C    106.780  52.930  63.660
   N    107.720  54.450  61.900
   O    107.340  53.600  61.020
   C    107.650  55.870  61.480
   C    109.070  56.490  61.470
   C    107.040  56.100  60.030
   C    106.630  56.400  62.540
   C    105.990  59.960  66.790
   C    106.220  60.830  65.450
   C    105.450  62.150  65.630
   C    105.570  60.060  64.260
   O    106.300  59.440  63.480
   O    104.250  60.260  64.080
   C    103.590  59.800  62.850
   C    104.130  60.390  61.600
   C    103.370  59.780  60.280
   C    104.280  58.690  59.660
   C    103.400  60.940  59.240
   N    102.090  59.190  60.770
   O    101.450  58.300  60.040
   C    101.220  59.840  61.830
   C    100.130  59.010  62.440
   C    100.450  61.110  61.280
   C    102.200  60.280  62.980
   C    107.730  61.160  65.380
   C    108.430  62.070  64.250
   C    107.850  61.810  62.820
   C    108.230  63.560  64.580
   O    109.200  64.350  64.630
   O    107.060  63.920  64.180
   C    106.550  65.170  63.930
   C    105.610  65.090  62.800
   C    104.550  66.340  62.770
   C    103.070  65.780  63.060
   C    104.350  66.930  61.350
   N    104.950  67.310  63.770
   O    104.680  68.590  63.550
   C    105.370  66.960  65.150
   C    106.600  67.720  65.480
   C    104.220  67.170  66.190
   C    105.700  65.460  65.140
   C    109.920  61.700  64.080
   C    111.020  61.700  65.130
   C    112.210  61.970  64.220
   C    110.930  62.850  66.160
   O    111.940  63.550  66.450
   O    109.920  62.590  67.020
   C    109.810  63.220  68.250
   C    108.610  64.180  68.110
   C    108.070  64.660  69.500
   C    108.960  65.860  69.810
   C    106.640  65.160  69.350
   N    108.160  63.600  70.490
   O    107.210  63.470  71.340
   C    109.320  62.640  70.690
   C    108.930  61.530  71.730
   C    110.600  63.370  71.220
   C    109.640  62.070  69.270
   C    111.160  60.390  66.080
   C    111.690  58.960  65.690
   C    111.050  58.480  64.350
   C    111.420  57.960  66.820
   O    110.880  58.330  67.870
   O    111.950  56.730  66.580
   C    111.780  55.570  67.410
   C    110.660  54.660  66.820
   C    110.490  53.410  67.730
   C    109.510  52.460  67.000
   C    109.980  53.830  69.120
   N    111.840  52.780  67.930
   O    111.900  51.570  68.210
   C    113.180  53.440  67.850
   C    114.000  52.560  66.880
   C    113.790  53.520  69.230
   C    113.130  54.910  67.340
   C    113.230  58.960  65.560
   H    104.330  55.280  68.070
   H    104.770  54.970  69.730
   H    103.800  56.390  69.300
   H    106.510  54.820  67.270
   H    106.950  54.560  68.870
   H    107.920  55.700  67.930
   H    106.080  57.360  72.660
   H    106.490  59.820  71.790
   H    104.860  59.970  71.340
   H    106.180  58.850  74.960
   H    105.740  60.470  75.340
   H    107.070  60.130  74.230
   H    105.920  62.070  73.030
   H    104.530  62.090  74.070
   H    104.450  61.930  72.340
   H    103.950  57.820  75.640
   H    103.180  56.270  75.040
   H    104.820  56.690  74.760
   H    101.500  58.470  72.610
   H    101.410  57.840  74.280
   H    101.730  56.770  73.020
   H    103.430  57.740  71.470
   H    104.180  56.330  72.350
   H    104.970  57.060  66.970
   H    104.820  58.160  68.290
   H    108.460  59.640  67.620
   H    108.490  58.120  68.310
   H    107.650  59.250  69.090
   H    108.030  57.230  63.840
   H    108.790  55.200  64.790
   H    107.150  54.700  65.220
   H    110.030  53.910  63.470
   H    109.200  52.540  64.280
   H    109.320  52.680  62.560
   H    106.680  52.160  62.900
   H    105.740  53.260  63.630
   H    106.740  52.370  64.600
   H    108.890  57.550  61.250
   H    109.520  56.530  62.460
   H    109.670  55.900  60.780
   H    107.620  55.670  59.210
   H    106.050  55.650  59.980
   H    106.890  57.140  59.720
   H    105.690  55.850  62.500
   H    106.470  57.400  62.150
   H    106.160  60.620  67.640
   H    104.910  59.870  66.860
   H    104.520  61.970  66.160
   H    105.990  62.900  66.210
   H    105.320  62.590  64.640
   H    103.730  58.720  62.850
   H    105.190  60.160  61.460
   H    104.060  61.450  61.390
   H    103.770  58.130  58.880
   H    104.570  57.890  60.330
   H    105.270  59.100  59.440
   H    102.720  61.790  59.320
   H    104.400  61.350  59.120
   H    103.160  60.450  58.300
   H    99.330  59.400  63.070
   H    100.530  58.230  63.090
   H    99.550  58.480  61.690
   H    101.010  62.000  61.010
   H    99.860  60.830  60.410
   H    99.680  61.480  61.950
   H    101.620  60.010  63.870
   H    102.290  61.340  63.220
   H    108.170  60.180  65.250
   H    108.050  61.640  66.310
   H    108.190  60.850  62.410
   H    108.160  62.550  62.090
   H    106.780  61.990  62.730
   H    107.350  65.910  63.810
   H    105.010  64.180  62.860
   H    106.170  65.140  61.860
   H    102.570  65.350  62.190
   H    102.340  66.410  63.570
   H    103.100  64.910  63.710
   H    103.690  67.790  61.470
   H    105.260  67.150  60.790
   H    103.840  66.270  60.630
   H    106.870  67.510  66.510
   H    107.490  67.580  64.870
   H    106.420  68.790  65.450
   H    103.380  66.540  65.930
   H    104.660  66.780  67.110
   H    104.070  68.250  66.140
   H    104.770  64.910  65.300
   H    106.290  65.310  66.040
   H    109.840  60.620  63.960
   H    110.210  62.190  63.150
   H    112.320  61.240  63.420
   H    112.940  61.800  65.010
   H    112.200  62.980  63.800
   H    110.670  63.840  68.500
   H    107.770  63.570  67.770
   H    108.790  65.030  67.450
   H    108.820  66.730  69.160
   H    110.030  65.660  69.680
   H    108.720  66.160  70.830
   H    106.240  65.310  68.350
   H    106.450  65.960  70.070
   H    105.970  64.360  69.640
   H    108.660  62.010  72.670
   H    109.830  60.920  71.870
   H    108.160  60.910  71.290
   H    111.020  64.100  70.530
   H    111.350  62.690  71.600
   H    110.400  63.940  72.120
   H    108.840  61.360  69.080
   H    110.600  61.570  69.420
   H    111.670  60.630  67.010
   H    110.120  60.200  66.350
   H    111.610  58.800  63.470
   H    111.010  57.400  64.280
   H    110.000  58.760  64.280
   H    111.440  55.930  68.380
   H    110.860  54.330  65.800
   H    109.710  55.190  66.730
   H    109.870  52.130  66.030
   H    108.510  52.790  66.720
   H    109.400  51.540  67.560
   H    110.210  53.050  69.850
   H    110.400  54.750  69.540
   H    108.920  54.030  69.250
   H    114.840  53.160  66.540
   H    114.340  51.670  67.420
   H    113.550  52.230  65.940
   H    114.100  54.510  69.570
   H    114.790  53.170  69.000
   H    113.360  52.940  70.040
   H    113.390  54.990  66.290
   H    113.780  55.640  67.840
   H    113.640  59.610  66.330
   H    113.720  57.990  65.560
   H    113.570  59.360  64.600
  