239
PTMA_CHAIN9_frame9
 C    82.870  41.230  61.460
   C    81.800  42.030  62.250
   C    82.660  42.900  63.230
   C    80.890  41.210  63.200
   O    80.310  41.780  64.150
   O    81.000  40.000  62.990
   C    80.180  39.070  63.660
   C    79.280  38.150  62.780
   C    78.450  37.080  63.730
   C    77.170  37.750  64.310
   C    78.010  35.940  62.790
   N    79.360  36.560  64.890
   O    79.020  35.530  65.420
   C    80.500  37.360  65.470
   C    80.070  38.360  66.590
   C    81.590  36.460  66.100
   C    81.150  38.170  64.370
   C    80.980  43.080  61.330
   C    79.700  42.700  60.520
   C    80.050  41.360  59.830
   C    78.470  42.560  61.470
   O    77.820  41.470  61.520
   O    78.400  43.450  62.510
   C    77.610  43.190  63.640
   C    78.230  44.020  64.810
   C    77.530  43.670  66.180
   C    78.080  42.360  66.770
   C    77.910  44.780  67.140
   N    76.040  43.610  66.040
   O    75.350  43.690  67.050
   C    75.360  43.370  64.730
   C    74.860  41.920  64.820
   C    74.090  44.300  64.540
   C    76.140  43.530  63.460
   C    79.450  43.850  59.440
   C    78.060  44.150  58.600
   C    77.700  42.730  58.070
   C    78.510  45.080  57.460
   O    79.250  46.060  57.720
   O    78.130  44.760  56.240
   C    78.650  45.460  55.110
   C    77.950  46.740  54.680
   C    78.570  47.430  53.440
   C    79.640  48.530  53.840
   C    77.410  48.140  52.760
   N    79.190  46.450  52.410
   O    79.640  46.860  51.360
   C    79.350  44.960  52.700
   C    80.860  44.670  52.850
   C    78.800  44.110  51.530
   C    78.570  44.520  53.910
   C    76.960  44.790  59.470
   C    75.750  45.750  58.880
   C    76.290  47.180  58.660
   C    75.200  45.120  57.570
   O    74.990  45.920  56.680
   O    74.900  43.850  57.560
   C    74.140  43.410  56.400
   C    74.930  43.350  55.060
   C    74.250  42.840  53.760
   C    75.360  42.450  52.780
   C    73.430  43.970  53.100
   N    73.290  41.650  53.990
   O    73.030  40.790  53.130
   C    72.690  41.430  55.380
   C    71.320  42.210  55.480
   C    72.320  39.970  55.600
   C    73.670  41.910  56.560
   C    74.670  45.810  60.030
   C    73.100  45.760  59.850
   C    72.600  46.730  58.780
   C    72.630  44.300  59.560
   O    71.940  44.010  58.580
   O    73.230  43.390  60.380
   C    73.040  41.950  60.250
   C    74.430  41.280  59.950
   C    74.410  39.750  59.900
   C    73.940  39.240  58.500
   C    75.820  39.140  60.180
   N    73.540  39.140  61.020
   O    73.520  37.890  61.160
   C    72.600  39.970  61.870
   C    72.850  39.600  63.390
   C    71.120  39.580  61.560
   C    72.700  41.510  61.710
   C    72.550  46.170  61.320
   C    71.070  46.090  61.750
   C    70.450  44.690  61.760
   C    70.200  47.140  61.050
   O    69.380  46.880  60.210
   O    70.450  48.400  61.540
   C    70.090  49.530  60.730
   C    69.030  50.480  61.380
   C    68.690  51.730  60.540
   C    67.840  52.650  61.380
   C    67.850  51.460  59.190
   N    69.970  52.470  60.100
   O    70.010  53.720  60.010
   C    71.200  51.720  59.820
   C    72.530  52.550  60.100
   C    71.310  51.390  58.360
   C    71.360  50.380  60.570
   C    71.170  46.430  63.220
   H    83.750  41.810  61.180
   H    83.380  40.520  62.110
   H    82.510  40.580  60.660
   H    83.160  42.210  63.910
   H    82.060  43.580  63.850
   H    83.530  43.410  62.820
   H    79.480  39.640  64.270
   H    78.530  38.730  62.240
   H    79.750  37.770  61.870
   H    76.690  37.040  64.980
   H    76.580  38.080  63.450
   H    77.350  38.590  64.970
   H    77.330  36.320  62.030
   H    77.570  35.150  63.400
   H    78.730  35.370  62.200
   H    79.950  37.900  67.570
   H    80.880  39.070  66.800
   H    79.150  38.880  66.320
   H    81.880  35.630  65.460
   H    81.310  36.040  67.070
   H    82.480  37.020  66.390
   H    81.670  37.550  63.630
   H    81.920  38.790  64.820
   H    80.780  43.980  61.910
   H    81.740  43.450  60.640
   H    80.290  40.520  60.480
   H    80.930  41.480  59.190
   H    79.210  41.050  59.210
   H    77.650  42.130  63.910
   H    79.310  43.830  64.890
   H    78.220  45.100  64.640
   H    78.560  41.730  66.030
   H    78.640  42.470  67.700
   H    77.200  41.790  67.100
   H    77.500  45.790  67.030
   H    78.980  44.970  67.080
   H    77.530  44.550  68.130
   H    73.820  41.890  64.490
   H    75.560  41.330  64.230
   H    74.960  41.500  65.810
   H    73.520  43.920  63.690
   H    73.420  44.130  65.380
   H    74.330  45.350  64.360
   H    76.040  44.560  63.130
   H    75.740  42.940  62.630
   H    80.220  43.700  58.680
   H    79.800  44.770  59.890
   H    78.600  42.270  57.670
   H    77.230  42.180  58.880
   H    77.090  42.720  57.170
   H    79.700  45.630  55.330
   H    77.930  47.530  55.430
   H    76.890  46.520  54.610
   H    80.170  48.810  52.930
   H    80.390  48.130  54.520
   H    79.330  49.460  54.310
   H    76.960  48.900  53.400
   H    77.820  48.630  51.880
   H    76.570  47.530  52.430
   H    81.370  45.040  51.960
   H    81.080  43.600  52.950
   H    81.150  45.130  53.800
   H    79.420  44.270  50.650
   H    78.840  43.070  51.850
   H    77.780  44.340  51.230
   H    78.960  43.540  54.190
   H    77.550  44.210  53.670
   H    77.510  45.270  60.280
   H    76.530  43.940  60.010
   H    75.390  47.790  58.570
   H    76.890  47.280  57.750
   H    76.810  47.490  59.570
   H    73.270  44.080  56.350
   H    75.760  42.710  55.360
   H    75.330  44.350  54.890
   H    75.650  43.400  52.330
   H    75.060  41.790  51.970
   H    76.320  42.060  53.110
   H    74.060  44.820  52.850
   H    72.950  43.650  52.170
   H    72.720  44.490  53.750
   H    70.520  41.630  55.010
   H    71.050  42.310  56.530
   H    71.280  43.200  55.020
   H    71.800  39.980  56.560
   H    71.560  39.600  54.900
   H    73.240  39.390  55.560
   H    74.460  41.160  56.480
   H    73.130  41.870  57.500
   H    74.930  45.210  60.900
   H    74.930  46.740  60.550
   H    72.890  46.410  57.780
   H    73.090  47.690  58.890
   H    71.530  46.820  58.590
   H    72.290  41.560  59.560
   H    75.140  41.560  60.720
   H    74.790  41.700  59.010
   H    74.680  39.470  57.730
   H    72.950  39.620  58.240
   H    73.680  38.180  58.460
   H    76.560  39.580  59.500
   H    75.990  38.070  60.040
   H    76.120  39.230  61.220
   H    73.910  39.670  63.610
   H    72.480  38.600  63.580
   H    72.330  40.280  64.060
   H    71.110  38.500  61.400
   H    70.550  40.160  60.840
   H    70.470  39.830  62.400
   H    73.480  41.880  62.370
   H    71.760  41.970  62.010
   H    73.120  45.560  62.020
   H    72.900  47.180  61.550
   H    69.450  44.820  62.170
   H    70.300  44.270  60.770
   H    71.030  43.970  62.340
   H    69.780  49.270  59.720
   H    69.460  50.720  62.350
   H    68.140  49.960  61.720
   H    66.860  52.280  61.680
   H    67.650  53.580  60.850
   H    68.270  52.910  62.350
   H    67.500  52.400  58.770
   H    68.420  51.020  58.370
   H    66.920  50.920  59.380
   H    72.490  53.060  61.070
   H    73.360  51.850  59.980
   H    72.750  53.330  59.380
   H    70.870  52.130  57.690
   H    70.730  50.500  58.150
   H    72.310  51.020  58.130
   H    71.710  50.560  61.590
   H    72.100  49.640  60.270
   H    70.150  46.610  63.550
   H    71.570  45.620  63.830
   H    71.750  47.300  63.540
  