239
PTMA_CHAIN9_frame1
 C    78.910  40.290  58.910
   C    78.100  41.030  60.050
   C    79.160  41.880  60.760
   C    77.470  39.990  61.010
   O    77.130  40.410  62.110
   O    77.700  38.740  60.670
   C    77.130  37.700  61.490
   C    75.710  37.330  61.040
   C    75.020  36.140  61.780
   C    74.450  36.650  63.130
   C    73.910  35.640  60.920
   N    76.050  35.080  62.040
   O    75.610  34.020  62.450
   C    77.520  35.230  61.920
   C    78.130  35.270  63.370
   C    78.220  34.040  61.170
   C    78.010  36.460  61.140
   C    77.040  42.020  59.390
   C    75.690  41.630  58.670
   C    75.890  40.390  57.670
   C    74.670  41.310  59.790
   O    74.140  40.230  59.890
   O    74.500  42.380  60.600
   C    74.120  42.100  61.930
   C    74.930  43.040  62.890
   C    74.570  42.820  64.430
   C    75.450  41.700  65.050
   C    74.990  44.170  64.980
   N    73.080  42.540  64.620
   O    72.670  42.810  65.760
   C    72.200  41.930  63.530
   C    72.180  40.380  63.620
   C    70.770  42.370  63.590
   C    72.650  42.320  62.110
   C    75.320  42.880  57.860
   C    73.920  43.350  57.150
   C    73.490  42.180  56.200
   C    74.230  44.670  56.320
   O    75.010  45.540  56.750
   O    73.560  44.750  55.150
   C    74.040  45.620  54.220
   C    72.870  46.450  53.860
   C    73.050  47.460  52.750
   C    73.800  48.710  53.260
   C    71.610  47.850  52.270
   N    73.860  46.900  51.570
   O    73.820  47.490  50.540
   C    74.870  45.760  51.730
   C    76.270  46.350  52.140
   C    74.930  44.880  50.470
   C    74.320  44.870  52.930
   C    72.750  43.670  58.200
   C    71.610  44.700  57.970
   C    72.130  46.160  57.950
   C    70.750  44.450  56.660
   O    70.390  45.430  55.980
   O    70.300  43.190  56.470
   C    69.510  42.980  55.370
   C    70.260  42.790  54.030
   C    69.350  42.690  52.810
   C    70.330  42.260  51.640
   C    68.850  44.170  52.510
   N    68.200  41.700  52.970
   O    67.500  41.460  51.990
   C    67.740  41.250  54.360
   C    66.360  41.940  54.610
   C    67.580  39.680  54.330
   C    68.740  41.630  55.520
   C    70.710  44.590  59.260
   C    69.070  44.470  59.410
   C    68.440  45.610  58.510
   C    68.580  43.060  59.070
   O    67.630  42.870  58.380
   O    69.280  42.010  59.680
   C    68.960  40.650  59.390
   C    70.220  40.080  58.740
   C    70.200  38.610  58.360
   C    69.180  38.350  57.170
   C    71.630  38.200  57.900
   N    69.900  37.780  59.560
   O    70.460  36.680  59.760
   C    68.830  38.220  60.480
   C    69.030  37.640  61.870
   C    67.460  37.740  60.020
   C    68.780  39.730  60.670
   C    68.730  44.710  60.940
   C    67.300  44.470  61.610
   C    66.170  45.300  60.960
   C    67.350  44.960  63.130
   O    68.390  45.440  63.660
   O    66.180  44.750  63.770
   C    66.030  44.990  65.160
   C    65.230  46.220  65.400
   C    64.820  46.510  66.900
   C    63.430  47.180  67.010
   C    65.900  47.450  67.360
   N    64.810  45.400  67.850
   O    64.330  45.420  68.990
   C    65.220  44.020  67.360
   C    64.140  42.940  67.760
   C    66.520  43.510  68.150
   C    65.320  43.830  65.810
   C    66.860  42.930  61.640
   H    79.680  39.590  59.240
   H    78.250  39.570  58.420
   H    79.160  41.020  58.150
   H    80.050  41.380  61.150
   H    78.650  42.310  61.620
   H    79.460  42.670  60.070
   H    77.120  37.920  62.560
   H    75.010  38.150  61.200
   H    75.650  37.230  59.950
   H    73.770  35.920  63.560
   H    73.840  37.550  63.040
   H    75.260  36.770  63.850
   H    73.370  36.530  60.590
   H    73.240  34.980  61.480
   H    74.300  35.200  60.000
   H    77.770  34.510  64.060
   H    79.220  35.290  63.450
   H    77.810  36.230  63.760
   H    78.290  33.170  61.830
   H    79.130  34.390  60.700
   H    77.610  33.540  60.410
   H    78.160  36.300  60.070
   H    79.020  36.760  61.450
   H    76.880  42.790  60.150
   H    77.660  42.530  58.640
   H    76.260  39.560  58.270
   H    76.570  40.670  56.880
   H    74.960  40.050  57.200
   H    74.380  41.080  62.230
   H    75.980  42.760  62.890
   H    74.780  44.040  62.480
   H    76.490  42.010  65.130
   H    74.980  41.550  66.030
   H    75.270  40.760  64.520
   H    74.180  44.890  64.960
   H    75.960  44.520  64.630
   H    75.140  44.010  66.050
   H    73.100  40.010  64.060
   H    71.430  40.000  64.320
   H    72.060  39.950  62.630
   H    70.230  41.820  62.810
   H    70.340  42.190  64.570
   H    70.520  43.400  63.330
   H    72.440  43.390  62.010
   H    72.140  41.780  61.320
   H    76.020  42.750  57.040
   H    75.650  43.760  58.410
   H    72.930  41.350  56.640
   H    72.730  42.520  55.500
   H    74.390  41.810  55.720
   H    74.950  46.140  54.520
   H    72.520  46.930  54.770
   H    72.090  45.730  53.610
   H    74.830  48.430  53.470
   H    73.310  49.140  54.140
   H    73.830  49.440  52.460
   H    71.720  48.730  51.630
   H    71.100  47.110  51.660
   H    70.840  48.200  52.950
   H    77.070  45.630  51.940
   H    76.390  46.610  53.190
   H    76.540  47.240  51.570
   H    75.200  45.480  49.600
   H    75.680  44.090  50.540
   H    74.000  44.320  50.320
   H    75.110  44.140  53.130
   H    73.460  44.350  52.500
   H    73.230  44.050  59.110
   H    72.380  42.690  58.500
   H    72.510  46.420  56.960
   H    72.850  46.380  58.740
   H    71.290  46.850  57.940
   H    68.800  43.780  55.170
   H    70.900  41.940  54.260
   H    70.990  43.590  53.950
   H    70.840  41.320  51.870
   H    71.070  43.040  51.480
   H    69.820  42.180  50.690
   H    68.270  44.160  51.580
   H    68.220  44.590  53.300
   H    69.720  44.810  52.360
   H    66.560  43.000  54.760
   H    65.810  41.860  53.670
   H    65.820  41.540  55.470
   H    66.800  39.340  53.650
   H    68.520  39.180  54.100
   H    67.090  39.470  55.280
   H    69.500  40.850  55.520
   H    68.230  41.650  56.480
   H    71.030  43.750  59.870
   H    70.970  45.440  59.890
   H    69.030  46.500  58.300
   H    67.430  45.880  58.840
   H    68.300  45.200  57.510
   H    68.110  40.580  58.710
   H    70.960  40.250  59.520
   H    70.540  40.620  57.850
   H    68.870  37.320  57.350
   H    69.650  38.570  56.210
   H    68.270  38.910  57.430
   H    72.400  38.320  58.660
   H    71.880  38.900  57.100
   H    71.540  37.150  57.600
   H    68.270  38.070  62.520
   H    69.980  37.940  62.310
   H    68.940  36.550  61.880
   H    66.690  38.010  60.740
   H    67.460  36.690  59.740
   H    67.150  38.280  59.130
   H    69.590  40.140  61.260
   H    67.930  39.930  61.320
   H    69.460  44.220  61.580
   H    68.820  45.800  61.000
   H    65.370  45.140  61.680
   H    66.560  46.310  61.050
   H    65.820  45.070  59.950
   H    66.990  45.100  65.670
   H    64.430  46.050  64.670
   H    65.610  47.170  65.020
   H    62.620  46.460  66.980
   H    63.320  47.870  66.170
   H    63.340  47.570  68.020
   H    66.900  47.090  67.560
   H    65.980  48.360  66.770
   H    65.640  47.830  68.350
   H    64.210  42.760  68.830
   H    63.130  43.300  67.570
   H    64.270  41.980  67.250
   H    67.440  43.970  67.790
   H    66.580  42.430  67.980
   H    66.360  43.650  69.220
   H    64.330  43.780  65.360
   H    65.900  42.920  65.660
   H    65.990  42.860  62.290
   H    66.590  42.390  60.730
   H    67.640  42.360  62.150
  