239
PTMA_CHAIN9_frame7
 C    82.920  38.050  60.090
   C    82.250  38.770  61.260
   C    83.420  39.120  62.260
   C    81.280  37.830  62.110
   O    80.740  38.200  63.130
   O    81.070  36.640  61.540
   C    80.290  35.700  62.290
   C    78.940  35.460  61.630
   C    78.050  34.340  62.180
   C    77.070  34.960  63.200
   C    77.310  33.720  61.020
   N    78.880  33.260  62.940
   O    78.350  32.460  63.670
   C    80.380  33.310  63.110
   C    80.790  33.550  64.590
   C    80.950  31.910  62.880
   C    81.010  34.360  62.170
   C    81.610  40.070  60.710
   C    80.090  40.350  60.310
   C    79.550  39.190  59.410
   C    79.250  40.430  61.580
   O    78.190  39.890  61.770
   O    79.770  41.300  62.500
   C    79.290  41.390  63.820
   C    80.480  41.260  64.790
   C    80.200  41.460  66.320
   C    79.620  40.100  66.950
   C    81.600  41.790  67.010
   N    79.150  42.520  66.580
   O    79.080  43.000  67.710
   C    78.140  42.980  65.550
   C    76.740  42.330  65.810
   C    77.980  44.460  65.610
   C    78.710  42.750  64.130
   C    80.210  41.800  59.570
   C    78.970  42.600  58.970
   C    78.280  41.570  58.020
   C    79.560  43.680  58.100
   O    80.590  44.290  58.460
   O    78.990  43.840  56.890
   C    79.730  44.390  55.850
   C    79.390  45.850  55.760
   C    80.210  46.460  54.620
   C    81.670  46.650  55.040
   C    79.700  47.870  54.380
   N    80.060  45.750  53.270
   O    79.970  46.340  52.190
   C    79.960  44.230  53.320
   C    81.430  43.730  53.310
   C    79.110  43.710  52.090
   C    79.280  43.670  54.540
   C    77.940  43.220  60.020
   C    76.990  44.530  59.830
   C    77.900  45.800  59.550
   C    76.090  44.460  58.570
   O    75.940  45.500  57.880
   O    75.710  43.230  58.190
   C    74.850  43.170  57.110
   C    75.450  43.440  55.750
   C    74.540  43.230  54.520
   C    75.330  43.320  53.240
   C    73.600  44.360  54.290
   N    73.670  42.040  54.700
   O    73.270  41.390  53.750
   C    73.220  41.490  56.090
   C    71.920  42.130  56.580
   C    72.970  39.940  56.070
   C    74.320  41.730  57.130
   C    76.180  44.870  61.180
   C    74.590  44.740  61.290
   C    73.960  45.860  60.390
   C    74.200  43.260  60.920
   O    73.210  43.070  60.320
   O    74.830  42.280  61.620
   C    74.300  40.920  61.710
   C    74.900  39.980  60.650
   C    74.460  38.560  60.830
   C    72.940  38.520  60.460
   C    75.240  37.650  59.910
   N    74.600  37.980  62.250
   O    74.660  36.770  62.480
   C    74.500  38.890  63.440
   C    75.440  38.460  64.540
   C    73.080  38.700  64.100
   C    74.720  40.400  63.100
   C    74.260  44.820  62.840
   C    72.780  44.660  63.490
   C    71.700  45.040  62.460
   C    72.730  45.670  64.710
   O    72.020  46.730  64.700
   O    73.450  45.200  65.710
   C    73.540  46.050  66.910
   C    72.400  45.650  67.850
   C    72.560  46.310  69.260
   C    71.570  45.500  70.170
   C    72.210  47.860  69.310
   N    73.960  46.110  69.860
   O    74.080  46.260  71.070
   C    75.160  46.220  68.980
   C    76.310  45.440  69.610
   C    75.670  47.710  68.890
   C    74.900  45.730  67.520
   C    72.590  43.250  64.070
   H    82.350  38.080  59.160
   H    83.900  38.470  59.860
   H    83.140  37.010  60.310
   H    84.050  38.230  62.390
   H    83.070  39.500  63.220
   H    84.100  39.900  61.920
   H    80.250  35.840  63.370
   H    78.480  36.420  61.420
   H    79.150  35.310  60.570
   H    76.690  35.920  62.870
   H    77.590  35.180  64.130
   H    76.280  34.230  63.400
   H    76.510  34.390  60.690
   H    76.940  32.710  61.210
   H    77.800  33.660  60.050
   H    80.310  32.800  65.220
   H    81.860  33.320  64.590
   H    80.460  34.540  64.880
   H    82.010  31.900  62.630
   H    80.420  31.540  62.010
   H    80.870  31.100  63.600
   H    80.960  34.040  61.130
   H    82.070  34.340  62.450
   H    81.940  40.850  61.410
   H    82.160  40.210  59.780
   H    79.780  38.200  59.800
   H    80.000  39.300  58.420
   H    78.470  39.230  59.310
   H    78.500  40.670  64.000
   H    80.980  40.290  64.700
   H    81.110  42.100  64.500
   H    78.850  39.770  66.250
   H    80.390  39.320  66.970
   H    79.180  40.280  67.920
   H    82.420  41.270  66.520
   H    81.630  41.390  68.030
   H    81.770  42.860  67.090
   H    76.330  42.690  66.750
   H    76.180  42.580  64.900
   H    76.900  41.260  65.960
   H    79.000  44.820  65.610
   H    77.400  44.820  64.760
   H    77.550  44.710  66.580
   H    79.430  43.490  63.790
   H    77.840  42.830  63.490
   H    80.880  41.620  58.730
   H    80.720  42.500  60.230
   H    79.010  40.970  57.480
   H    77.520  40.960  58.490
   H    77.720  42.030  57.210
   H    80.770  44.250  56.140
   H    79.590  46.360  56.710
   H    78.320  46.000  55.680
   H    82.310  46.850  54.180
   H    81.980  45.790  55.640
   H    81.810  47.560  55.630
   H    80.180  48.450  53.600
   H    78.740  47.750  53.890
   H    79.550  48.510  55.250
   H    82.190  44.170  53.950
   H    81.950  43.940  52.380
   H    81.530  42.650  53.400
   H    79.600  44.000  51.160
   H    78.930  42.630  52.060
   H    78.100  44.100  52.190
   H    79.480  42.610  54.700
   H    78.200  43.760  54.440
   H    78.470  43.410  60.950
   H    77.290  42.410  60.370
   H    77.440  46.780  59.610
   H    78.210  45.830  58.500
   H    78.820  45.690  60.130
   H    74.020  43.840  57.340
   H    76.380  42.870  55.700
   H    75.730  44.490  55.590
   H    75.960  42.450  53.050
   H    75.990  44.190  53.120
   H    74.700  43.330  52.350
   H    74.030  45.240  53.800
   H    72.750  44.040  53.690
   H    73.300  44.760  55.260
   H    71.570  41.700  57.520
   H    71.890  43.200  56.800
   H    71.090  42.030  55.870
   H    72.120  39.540  55.520
   H    73.890  39.430  55.780
   H    72.770  39.610  57.090
   H    75.110  40.980  57.170
   H    73.830  41.680  58.100
   H    76.510  44.110  61.880
   H    76.460  45.870  61.520
   H    74.610  46.560  59.860
   H    73.250  46.560  60.830
   H    73.430  45.340  59.590
   H    73.220  40.980  61.620
   H    75.990  39.980  60.710
   H    74.780  40.320  59.630
   H    72.790  38.800  59.420
   H    72.380  39.180  61.120
   H    72.530  37.520  60.550
   H    74.860  36.630  59.910
   H    76.300  37.690  60.180
   H    75.130  38.000  58.880
   H    76.400  38.320  64.040
   H    75.260  37.520  65.060
   H    75.590  39.250  65.290
   H    72.270  38.920  63.410
   H    72.840  39.310  64.970
   H    73.000  37.690  64.490
   H    75.790  40.580  63.160
   H    74.330  41.000  63.920
   H    74.810  43.980  63.250
   H    74.810  45.660  63.260
   H    71.750  44.400  61.580
   H    70.710  44.870  62.880
   H    71.650  46.100  62.230
   H    73.580  47.120  66.730
   H    72.420  44.570  67.970
   H    71.430  45.870  67.400
   H    70.910  44.910  69.530
   H    70.820  46.110  70.670
   H    71.990  44.790  70.870
   H    72.820  48.350  70.070
   H    72.440  48.320  68.350
   H    71.160  48.050  69.530
   H    76.020  44.410  69.450
   H    77.240  45.800  69.180
   H    76.290  45.560  70.700
   H    76.540  47.750  68.230
   H    75.850  48.200  69.850
   H    74.880  48.320  68.470
   H    75.000  44.650  67.600
   H    75.590  46.180  66.800
   H    73.410  42.930  64.720
   H    71.580  43.160  64.460
   H    72.540  42.500  63.280
  