239
PTMA_CHAIN7_time16
 C    2.030  6.490  6.530
   C    2.410  7.750  7.370
   C    3.880  7.930  6.870
   C    2.490  7.450  8.900
   O    3.380  7.940  9.600
   O    1.640  6.510  9.310
   C    1.950  5.850  10.550
   C    0.690  5.860  11.430
   C    0.750  4.910  12.600
   C    1.270  5.570  13.890
   C    -0.650  4.250  12.850
   N    1.580  3.710  12.350
   H    1.430  2.860  13.010
   C    2.620  3.650  11.360
   C    3.850  4.130  12.090
   C    2.780  2.150  10.850
   C    2.260  4.450  10.170
   C    1.430  8.920  7.010
   C    1.560  10.410  7.600
   C    0.920  10.670  9.020
   C    3.110  10.720  7.590
   O    3.690  10.930  8.720
   O    3.700  10.960  6.450
   C    5.130  11.230  6.370
   C    5.430  10.950  4.970
   C    6.850  11.270  4.610
   C    7.670  9.960  4.670
   C    6.940  11.770  3.140
   N    7.540  12.240  5.440
   H    8.600  12.410  5.240
   C    6.980  12.890  6.630
   C    7.780  12.200  7.850
   C    7.350  14.350  6.640
   C    5.420  12.630  6.740
   C    0.900  11.420  6.560
   C    0.630  12.970  6.680
   C    -0.610  13.120  7.620
   C    0.350  13.430  5.260
   O    1.210  13.740  4.460
   O    -0.890  13.390  4.940
   C    -1.440  13.800  3.670
   C    -2.920  14.060  3.960
   C    -3.580  14.600  2.670
   C    -3.360  16.100  2.660
   C    -5.050  14.350  2.720
   N    -3.110  14.040  1.370
   H    -3.740  14.170  0.490
   C    -1.880  13.220  1.300
   C    -0.900  14.050  0.460
   C    -2.280  12.000  0.460
   C    -1.430  12.710  2.670
   C    1.900  13.850  7.200
   C    1.820  15.360  7.650
   C    1.120  16.290  6.570
   C    1.060  15.330  8.950
   O    1.440  14.530  9.850
   O    0.040  16.220  9.050
   C    -0.730  16.200  10.240
   C    -0.280  17.200  11.240
   C    -1.140  17.230  12.450
   C    -1.420  18.660  12.900
   C    -0.440  16.560  13.640
   N    -2.480  16.600  12.220
   H    -3.000  16.140  13.060
   C    -3.170  16.480  10.940
   C    -3.940  15.130  10.830
   C    -4.220  17.560  10.870
   C    -2.140  16.660  9.770
   C    3.360  15.720  7.880
   C    3.850  17.080  8.650
   C    5.350  17.110  8.440
   C    3.150  18.290  7.990
   O    2.010  18.680  8.280
   O    3.990  19.110  7.280
   C    3.520  20.230  6.490
   C    3.870  21.470  7.280
   C    3.460  22.750  6.630
   C    2.170  23.290  7.170
   C    4.630  23.720  6.770
   N    3.350  22.600  5.120
   H    2.980  23.480  4.600
   C    3.920  21.500  4.310
   C    5.180  22.030  3.480
   C    2.800  21.070  3.340
   C    4.230  20.270  5.130
   C    3.560  17.100  10.150
   C    3.950  18.290  11.160
   C    5.560  18.370  11.240
   C    3.620  17.710  12.610
   O    2.780  18.200  13.380
   O    4.250  16.510  12.830
   C    4.540  16.150  14.100
   C    3.640  15.110  14.680
   C    3.930  14.660  16.110
   C    3.450  13.270  16.430
   C    3.310  15.630  17.090
   N    5.450  14.760  16.390
   O    5.860  14.710  17.520
   C    6.540  15.050  15.370
   C    7.350  13.800  15.170
   C    7.520  16.210  15.880
   C    5.940  15.500  13.950
   C    3.260  19.640  10.920
   H    2.570  5.570  6.760
   H    0.990  6.220  6.690
   H    2.260  6.750  5.500
   H    4.520  8.640  7.380
   H    3.980  8.230  5.820
   H    4.420  6.990  6.920
   H    2.800  6.310  11.070
   H    0.470  6.880  11.730
   H    -0.170  5.540  10.840
   H    0.440  5.930  14.500
   H    1.980  6.340  13.590
   H    1.840  4.790  14.400
   H    -1.320  5.000  13.270
   H    -0.590  3.590  13.710
   H    -1.020  3.700  11.980
   H    3.960  3.620  13.050
   H    4.800  3.870  11.620
   H    3.970  5.210  12.150
   H    3.000  1.390  11.600
   H    3.550  2.080  10.080
   H    1.850  1.740  10.450
   H    1.340  4.100  9.700
   H    3.090  4.420  9.460
   H    1.530  9.050  5.940
   H    0.420  8.610  7.260
   H    1.210  11.660  9.380
   H    1.320  10.030  9.810
   H    -0.160  10.560  9.040
   H    5.590  10.490  7.020
   H    5.210  9.890  4.790
   H    4.790  11.550  4.320
   H    8.690  10.200  4.380
   H    7.730  9.470  5.640
   H    7.430  9.200  3.920
   H    7.610  11.190  2.510
   H    7.170  12.820  2.980
   H    5.970  11.610  2.660
   H    8.810  12.560  7.840
   H    7.500  12.560  8.830
   H    7.630  11.120  7.870
   H    8.410  14.520  6.830
   H    7.110  14.810  5.680
   H    6.920  14.940  7.440
   H    4.930  13.300  6.030
   H    4.890  12.840  7.670
   H    -0.090  11.020  6.320
   H    1.510  11.230  5.670
   H    -0.450  12.920  8.680
   H    -1.120  14.080  7.660
   H    -1.450  12.550  7.230
   H    -0.900  14.720  3.460
   H    -2.970  14.780  4.770
   H    -3.470  13.190  4.310
   H    -3.660  16.560  3.600
   H    -3.890  16.580  1.840
   H    -2.320  16.340  2.450
   H    -5.350  13.350  2.410
   H    -5.510  14.500  3.700
   H    -5.640  14.950  2.030
   H    -0.230  13.470  -0.190
   H    -0.260  14.660  1.100
   H    -1.450  14.740  -0.180
   H    -2.230  12.280  -0.600
   H    -1.690  11.110  0.660
   H    -3.300  11.660  0.660
   H    -0.400  12.350  2.620
   H    -2.040  11.880  3.000
   H    2.650  13.780  6.410
   H    2.310  13.310  8.050
   H    1.040  17.320  6.920
   H    0.050  16.130  6.470
   H    1.730  16.300  5.670
   H    -0.660  15.190  10.630
   H    -0.310  18.180  10.770
   H    0.750  17.050  11.550
   H    -2.090  19.160  12.190
   H    -0.490  19.230  12.940
   H    -1.730  18.660  13.940
   H    0.620  16.830  13.590
   H    -0.880  16.920  14.570
   H    -0.500  15.470  13.640
   H    -3.380  14.230  11.090
   H    -4.780  15.140  11.530
   H    -4.500  15.190  9.900
   H    -3.730  18.540  10.840
   H    -4.740  17.490  9.920
   H    -4.840  17.480  11.760
   H    -2.250  17.660  9.350
   H    -2.520  15.940  9.050
   H    3.880  14.890  8.360
   H    3.690  15.770  6.850
   H    5.710  18.130  8.610
   H    5.620  16.980  7.400
   H    6.000  16.560  9.130
   H    2.440  20.210  6.320
   H    4.960  21.440  7.340
   H    3.480  21.440  8.300
   H    1.990  23.100  8.230
   H    1.310  22.820  6.690
   H    2.150  24.370  7.000
   H    4.480  24.570  6.100
   H    5.540  23.230  6.430
   H    4.940  23.990  7.780
   H    5.950  22.150  4.250
   H    5.080  22.980  2.950
   H    5.670  21.320  2.820
   H    2.010  20.520  3.850
   H    3.290  20.500  2.540
   H    2.350  21.930  2.830
   H    5.290  20.170  5.380
   H    3.990  19.320  4.650
   H    2.480  17.150  10.230
   H    3.850  16.120  10.550
   H    6.140  17.460  11.280
   H    5.850  18.980  10.380
   H    5.860  18.930  12.130
   H    4.570  16.970  14.820
   H    3.470  14.300  13.970
   H    2.710  15.690  14.700
   H    3.780  12.910  17.410
   H    3.880  12.640  15.660
   H    2.360  13.330  16.390
   H    3.330  15.330  18.140
   H    3.790  16.610  17.060
   H    2.250  15.850  16.980
   H    8.340  14.140  14.860
   H    7.420  13.220  16.090
   H    6.970  13.170  14.370
   H    6.900  17.030  16.250
   H    7.980  16.580  14.970
   H    8.210  15.780  16.610
   H    5.690  14.550  13.470
   H    6.580  16.160  13.360
   H    3.300  20.190  11.860
   H    3.740  20.240  10.150
   H    2.240  19.550  10.560
  