239
PTMA_CHAIN7_time0
 C    102.760  11.190  16.100
   C    102.610  12.690  16.470
   C    103.560  12.950  17.650
   C    101.150  12.850  16.940
   O    100.820  13.040  18.110
   O    100.280  12.600  15.930
   C    98.920  12.260  16.300
   C    98.060  13.490  16.570
   C    96.630  13.070  17.030
   C    96.670  12.890  18.570
   C    95.690  14.270  16.720
   N    96.250  11.750  16.440
   O    94.830  11.550  16.510
   C    96.770  11.420  15.100
   C    96.400  9.960  14.710
   C    96.270  12.340  13.960
   C    98.330  11.460  15.130
   C    102.940  13.520  15.190
   C    103.370  15.040  15.250
   C    102.320  15.830  16.030
   C    104.780  15.160  15.880
   O    105.070  15.940  16.770
   O    105.660  14.310  15.270
   C    107.080  14.430  15.560
   C    107.560  13.310  16.470
   C    108.270  12.130  15.750
   C    108.750  11.150  16.860
   C    107.220  11.320  14.930
   N    109.300  12.580  14.770
   O    110.630  12.200  15.160
   C    109.270  13.990  14.300
   C    110.070  15.010  15.160
   C    109.840  14.030  12.860
   C    107.810  14.470  14.210
   C    103.500  15.530  13.750
   C    103.490  17.050  13.240
   C    102.010  17.460  13.060
   C    104.230  16.890  11.890
   O    105.430  16.650  11.820
   O    103.400  16.910  10.800
   C    104.000  16.510  9.540
   C    104.850  17.620  8.930
   C    105.500  17.180  7.590
   C    106.670  16.220  7.890
   C    106.110  18.480  6.980
   N    104.450  16.670  6.670
   O    105.040  16.180  5.440
   C    103.430  15.720  7.180
   C    103.880  14.240  7.300
   C    102.200  15.750  6.220
   C    102.890  16.190  8.560
   C    104.230  18.070  14.200
   C    104.900  19.440  13.800
   C    105.980  19.250  12.710
   C    104.070  20.610  13.230
   O    104.450  21.770  13.330
   O    103.030  20.210  12.450
   C    102.460  21.230  11.590
   C    101.960  20.600  10.290
   C    100.430  20.700  10.020
   C    99.670  19.670  10.890
   C    100.210  20.210  8.560
   N    99.860  22.040  10.340
   O    99.490  22.800  9.180
   C    100.560  22.890  11.340
   C    101.490  23.980  10.740
   C    99.470  23.610  12.180
   C    101.390  22.030  12.320
   C    105.730  19.990  15.050
   C    105.140  20.440  16.430
   C    106.080  21.570  16.950
   C    103.770  21.160  16.330
   O    103.650  22.350  16.040
   O    102.720  20.370  16.690
   C    101.620  21.080  17.300
   C    100.550  21.490  16.300
   C    99.480  22.380  17.000
   C    99.970  23.860  16.900
   C    98.170  22.280  16.180
   N    99.380  22.050  18.450
   O    98.180  22.600  19.040
   C    99.600  20.640  18.860
   C    98.530  19.650  18.350
   C    99.640  20.520  20.410
   C    101.000  20.170  18.360
   C    105.070  19.290  17.520
   C    106.300  18.780  18.370
   C    107.460  18.320  17.480
   C    105.820  17.640  19.300
   O    104.720  17.640  19.850
   O    106.820  16.760  19.570
   C    106.670  15.870  20.720
   C    107.310  14.540  20.370
   C    107.420  13.580  21.590
   C    108.460  12.500  21.180
   C    106.060  12.870  21.770
   N    107.680  14.310  22.860
   O    108.370  13.480  23.820
   C    108.270  15.660  22.780
   C    109.710  15.700  22.210
   C    108.330  16.330  24.180
   C    107.320  16.550  21.930
   C    106.820  19.840  19.380
   H    103.790  10.940  15.860
   H    102.450  10.550  16.930
   H    102.140  10.930  15.240
   H    104.600  12.760  17.370
   H    103.330  12.290  18.490
   H    103.490  13.970  18.030
   H    98.950  11.620  17.180
   H    98.540  14.140  17.310
   H    98.030  14.090  15.660
   H    97.320  12.060  18.860
   H    95.680  12.690  18.980
   H    97.050  13.790  19.060
   H    96.110  15.190  17.140
   H    94.700  14.140  17.170
   H    95.560  14.440  15.650
   H    95.340  9.840  14.500
   H    96.930  9.650  13.810
   H    96.680  9.260  15.490
   H    96.630  13.360  14.060
   H    95.180  12.360  13.900
   H    96.620  11.980  12.990
   H    98.710  11.880  14.200
   H    98.770  10.460  15.190
   H    103.720  12.990  14.650
   H    102.080  13.460  14.530
   H    102.580  16.890  16.120
   H    102.220  15.480  17.060
   H    101.340  15.760  15.550
   H    107.260  15.380  16.070
   H    108.260  13.740  17.180
   H    106.730  12.930  17.070
   H    109.460  11.630  17.530
   H    107.910  10.820  17.470
   H    109.210  10.250  16.440
   H    107.680  10.450  14.470
   H    106.760  11.900  14.130
   H    106.410  10.960  15.570
   H    109.890  16.030  14.820
   H    109.810  14.970  16.220
   H    111.150  14.840  15.090
   H    110.900  13.790  12.850
   H    109.320  13.320  12.210
   H    109.730  15.020  12.420
   H    107.250  13.880  13.480
   H    107.760  15.490  13.820
   H    102.720  15.030  13.180
   H    104.410  15.060  13.360
   H    101.550  17.740  14.010
   H    101.890  18.290  12.360
   H    101.410  16.650  12.640
   H    104.580  15.610  9.730
   H    105.620  17.940  9.630
   H    104.230  18.500  8.790
   H    107.230  15.940  6.990
   H    106.350  15.300  8.380
   H    107.390  16.690  8.560
   H    105.330  19.200  6.720
   H    106.780  18.960  7.690
   H    106.690  18.270  6.080
   H    103.060  13.610  7.650
   H    104.690  14.100  8.010
   H    104.190  13.820  6.340
   H    101.840  16.770  6.080
   H    102.450  15.340  5.240
   H    101.380  15.150  6.620
   H    102.230  15.440  8.990
   H    102.260  17.070  8.440
   H    105.030  17.500  14.670
   H    103.530  18.320  14.990
   H    106.650  18.430  12.950
   H    106.600  20.140  12.610
   H    105.540  19.110  11.720
   H    103.270  21.910  11.300
   H    102.280  19.560  10.230
   H    102.480  21.110  9.470
   H    100.050  18.660  10.730
   H    98.610  19.660  10.640
   H    99.740  19.870  11.960
   H    99.150  20.200  8.290
   H    100.740  20.830  7.840
   H    100.580  19.190  8.430
   H    102.060  24.480  11.520
   H    102.210  23.560  10.030
   H    100.930  24.770  10.230
   H    98.790  22.900  12.640
   H    99.920  24.200  12.980
   H    98.870  24.290  11.570
   H    100.760  21.370  12.920
   H    101.870  22.670  13.060
   H    106.500  19.240  15.250
   H    106.300  20.840  14.670
   H    107.120  21.250  16.970
   H    105.780  21.920  17.940
   H    106.060  22.440  16.300
   H    102.010  21.960  17.810
   H    100.100  20.590  15.880
   H    101.000  22.010  15.450
   H    100.130  24.140  15.860
   H    100.910  24.010  17.430
   H    99.240  24.560  17.310
   H    98.370  22.480  15.130
   H    97.420  23.000  16.500
   H    97.720  21.290  16.230
   H    97.520  19.950  18.640
   H    98.700  18.650  18.760
   H    98.550  19.540  17.270
   H    100.360  21.220  20.850
   H    99.940  19.510  20.710
   H    98.670  20.710  20.870
   H    100.950  19.150  17.970
   H    101.710  20.100  19.180
   H    104.330  19.600  18.260
   H    104.610  18.420  17.040
   H    107.900  19.140  16.910
   H    108.280  17.890  18.050
   H    107.130  17.560  16.770
   H    105.610  15.700  20.920
   H    108.280  14.720  19.910
   H    106.740  14.070  19.570
   H    109.460  12.920  21.090
   H    108.210  12.070  20.210
   H    108.500  11.670  21.890
   H    106.100  12.110  22.560
   H    105.270  13.580  22.030
   H    105.750  12.360  20.860
   H    110.100  16.720  22.210
   H    110.400  15.110  22.800
   H    109.790  15.350  21.180
   H    108.610  17.380  24.090
   H    109.070  15.870  24.840
   H    107.360  16.290  24.680
   H    107.850  17.450  21.620
   H    106.500  16.910  22.560
   H    105.990  20.370  19.850
   H    107.400  19.370  20.180
   H    107.490  20.570  18.920
  