239
PTMA_CHAIN7_frame6
 C    86.690  7.330  16.610
   C    86.660  8.750  17.120
   C    87.450  8.680  18.450
   C    85.190  9.010  17.490
   O    84.780  9.310  18.600
   O    84.310  8.580  16.500
   C    82.920  8.390  16.750
   C    82.060  9.520  16.090
   C    80.540  9.190  15.930
   C    79.760  10.200  16.750
   C    80.150  9.510  14.450
   N    80.160  7.750  16.270
   O    78.930  7.420  16.350
   C    81.170  6.610  16.470
   C    81.020  5.990  17.880
   C    80.810  5.480  15.440
   C    82.600  6.950  16.280
   C    87.040  9.770  15.980
   C    87.520  11.220  16.180
   C    86.420  11.890  17.070
   C    88.920  11.250  16.900
   O    89.210  11.930  17.950
   O    89.710  10.220  16.570
   C    90.880  9.890  17.370
   C    91.260  8.470  16.880
   C    92.580  7.810  17.370
   C    92.350  7.210  18.780
   C    93.040  6.600  16.480
   N    93.700  8.760  17.500
   O    94.850  8.330  17.530
   C    93.480  10.220  17.620
   C    93.450  10.620  19.120
   C    94.680  10.910  16.860
   C    92.160  10.740  17.010
   C    87.540  12.050  14.800
   C    88.890  12.320  13.960
   C    88.300  12.970  12.660
   C    89.540  10.970  13.560
   O    90.760  10.690  13.570
   O    88.590  10.060  13.150
   C    89.020  8.960  12.370
   C    87.840  8.610  11.440
   C    88.070  7.270  10.540
   C    88.440  7.700  9.060
   C    86.750  6.530  10.510
   N    89.210  6.400  11.130
   O    89.770  5.600  10.400
   C    89.780  6.550  12.520
   C    91.310  6.730  12.520
   C    89.400  5.330  13.320
   C    89.180  7.730  13.290
   C    89.900  13.300  14.790
   C    90.940  14.290  14.120
   C    91.850  13.620  13.140
   C    90.070  15.430  13.510
   O    89.350  16.120  14.250
   O    90.240  15.580  12.180
   C    89.670  16.620  11.370
   C    90.730  17.080  10.420
   C    90.180  18.050  9.350
   C    91.350  18.250  8.350
   C    89.900  19.450  10.030
   N    88.980  17.550  8.570
   O    88.890  17.780  7.370
   C    88.010  16.760  9.310
   C    86.850  17.680  9.780
   C    87.290  15.790  8.330
   C    88.510  15.960  10.540
   C    91.760  14.740  15.410
   C    92.540  16.120  15.540
   C    93.330  16.460  14.210
   C    91.580  17.260  15.890
   O    91.450  18.260  15.160
   O    90.690  16.940  16.820
   C    89.530  17.680  16.990
   C    88.350  16.780  17.340
   C    86.990  17.530  17.520
   C    86.080  17.370  16.260
   C    86.200  16.650  18.550
   N    87.110  18.930  17.960
   O    86.090  19.560  18.090
   C    88.400  19.680  18.230
   C    88.480  20.140  19.700
   C    88.480  21.010  17.390
   C    89.690  18.820  18.050
   C    93.730  16.070  16.580
   C    93.540  15.990  18.200
   C    93.150  17.280  18.850
   C    95.010  15.620  18.800
   O    96.050  16.010  18.190
   O    95.020  14.870  19.990
   C    96.270  14.410  20.450
   C    96.200  14.590  21.950
   C    97.580  14.180  22.590
   C    97.310  14.000  24.100
   C    98.590  15.340  22.420
   N    98.290  12.940  22.030
   O    99.330  12.450  22.550
   C    97.810  12.300  20.710
   C    97.540  10.800  20.920
   C    98.830  12.470  19.650
   C    96.430  12.880  20.300
   C    92.580  14.970  18.680
   H    86.140  6.610  17.220
   H    86.370  7.150  15.580
   H    87.730  7.020  16.700
   H    86.840  8.140  19.180
   H    87.560  9.650  18.940
   H    88.400  8.150  18.410
   H    82.780  8.400  17.830
   H    82.260  10.360  16.740
   H    82.490  9.790  15.120
   H    80.020  10.190  17.810
   H    78.700  10.050  16.540
   H    80.050  11.160  16.320
   H    79.100  9.320  14.210
   H    80.760  9.020  13.700
   H    80.360  10.550  14.200
   H    81.430  4.980  17.970
   H    81.560  6.420  18.720
   H    79.980  5.770  18.110
   H    79.820  5.050  15.630
   H    81.570  4.700  15.450
   H    80.810  5.860  14.420
   H    82.870  6.830  15.230
   H    83.200  6.170  16.730
   H    87.850  9.200  15.530
   H    86.250  9.730  15.220
   H    85.500  11.950  16.490
   H    86.580  12.960  17.180
   H    86.140  11.500  18.060
   H    90.780  10.030  18.450
   H    90.370  7.880  17.120
   H    91.350  8.460  15.790
   H    91.640  6.390  18.740
   H    93.210  6.790  19.300
   H    91.960  7.830  19.580
   H    93.770  5.920  16.920
   H    93.340  6.910  15.480
   H    92.150  6.010  16.250
   H    94.420  10.880  19.550
   H    92.880  11.530  19.270
   H    92.920  9.880  19.730
   H    94.380  11.940  16.660
   H    95.610  11.050  17.420
   H    94.890  10.430  15.910
   H    92.290  10.590  15.940
   H    92.030  11.790  17.280
   H    87.060  13.020  14.940
   H    86.810  11.570  14.150
   H    89.030  13.120  11.870
   H    87.620  12.270  12.160
   H    87.760  13.890  12.860
   H    89.950  9.240  11.880
   H    87.530  9.440  10.800
   H    86.920  8.470  12.010
   H    89.480  7.900  8.780
   H    87.890  8.560  8.680
   H    87.920  7.010  8.390
   H    86.950  5.490  10.250
   H    86.350  6.450  11.520
   H    86.020  7.170  10.020
   H    91.840  5.840  12.170
   H    91.650  7.020  13.520
   H    91.580  7.550  11.860
   H    88.320  5.200  13.340
   H    89.680  4.370  12.910
   H    89.820  5.440  14.320
   H    89.880  8.050  14.060
   H    88.270  7.410  13.810
   H    90.480  12.610  15.420
   H    89.270  13.780  15.540
   H    91.370  13.140  12.290
   H    92.470  12.890  13.660
   H    92.530  14.360  12.710
   H    89.300  17.380  12.060
   H    91.090  16.180  9.940
   H    91.690  17.380  10.840
   H    91.100  19.110  7.730
   H    91.580  17.390  7.720
   H    92.310  18.520  8.800
   H    90.710  20.130  10.310
   H    89.250  20.070  9.410
   H    89.340  19.240  10.940
   H    87.210  18.300  10.600
   H    86.440  18.310  8.990
   H    85.910  17.210  10.060
   H    88.020  15.100  7.920
   H    86.620  15.110  8.860
   H    86.750  16.230  7.490
   H    88.980  15.080  10.100
   H    87.700  15.570  11.170
   H    91.260  14.590  16.370
   H    92.480  13.940  15.600
   H    94.000  15.630  13.960
   H    93.930  17.370  14.310
   H    92.690  16.750  13.380
   H    89.180  18.090  16.040
   H    88.530  16.210  18.250
   H    88.210  16.040  16.550
   H    85.870  16.340  15.970
   H    86.630  17.660  15.360
   H    85.120  17.880  16.280
   H    86.660  16.590  19.540
   H    85.940  15.660  18.190
   H    85.240  17.120  18.740
   H    88.420  19.250  20.320
   H    87.700  20.810  20.070
   H    89.450  20.590  19.930
   H    87.540  21.540  17.550
   H    88.570  20.790  16.330
   H    89.250  21.760  17.590
   H    89.860  18.250  18.960
   H    90.560  19.460  17.900
   H    94.370  15.210  16.370
   H    94.310  16.950  16.310
   H    92.080  17.420  18.930
   H    93.390  17.280  19.910
   H    93.650  18.140  18.380
   H    97.120  15.030  20.170
   H    95.410  14.010  22.410
   H    95.970  15.630  22.190
   H    98.210  13.970  24.700
   H    96.740  13.120  24.400
   H    96.690  14.850  24.390
   H    98.130  16.260  22.790
   H    99.530  15.060  22.890
   H    98.970  15.540  21.430
   H    96.690  10.600  21.570
   H    97.490  10.200  20.010
   H    98.430  10.360  21.370
   H    98.940  13.530  19.440
   H    98.560  12.020  18.700
   H    99.820  12.140  19.980
   H    95.690  12.390  20.930
   H    96.090  12.640  19.290
   H    92.490  14.980  19.760
   H    91.530  15.160  18.450
   H    92.850  13.940  18.450
  