239
PTMA_CHAIN7_frame2
 C    83.850  3.520  8.680
   C    83.660  4.620  9.780
   C    84.810  4.360  10.750
   C    82.240  4.370  10.490
   O    82.150  3.660  11.500
   O    81.280  5.010  9.820
   C    79.940  4.620  10.170
   C    79.280  5.460  11.310
   C    77.900  4.970  11.730
   C    77.970  3.620  12.490
   C    77.450  6.080  12.710
   N    77.030  4.830  10.580
   O    75.830  5.020  10.830
   C    77.570  4.550  9.150
   C    77.320  3.130  8.640
   C    76.780  5.500  8.230
   C    79.070  5.030  8.960
   C    83.910  6.040  9.070
   C    83.710  7.470  9.680
   C    82.160  7.680  9.920
   C    84.510  7.550  11.000
   O    84.000  8.030  11.990
   O    85.760  7.170  10.970
   C    86.550  7.020  12.170
   C    87.780  6.280  11.840
   C    88.710  5.890  13.130
   C    88.270  4.500  13.680
   C    90.180  5.820  12.660
   N    88.630  6.850  14.300
   O    89.290  6.570  15.340
   C    87.590  7.930  14.320
   C    86.490  7.420  15.340
   C    88.220  9.250  14.820
   C    86.910  8.280  12.960
   C    84.090  8.600  8.570
   C    85.310  9.580  8.540
   C    85.130  10.220  7.160
   C    86.620  8.750  8.510
   O    87.570  9.040  9.230
   O    86.730  7.810  7.500
   C    87.900  6.950  7.510
   C    88.340  7.000  6.080
   C    89.650  6.140  5.900
   C    90.980  6.940  6.050
   C    89.560  5.600  4.460
   N    89.710  4.880  6.790
   O    90.740  4.140  6.680
   C    88.550  4.490  7.720
   C    89.100  4.350  9.180
   C    88.020  3.150  7.340
   C    87.420  5.510  7.840
   C    85.250  10.580  9.830
   C    85.740  12.070  9.820
   C    87.160  12.000  9.350
   C    84.750  12.900  8.850
   O    83.560  12.810  8.880
   O    85.590  13.510  7.880
   C    85.040  14.230  6.760
   C    86.270  15.220  6.460
   C    86.160  16.170  5.200
   C    87.630  16.510  4.870
   C    85.370  17.490  5.490
   N    85.590  15.360  4.050
   O    85.650  15.960  2.980
   C    84.650  14.140  4.180
   C    83.220  14.660  4.170
   C    84.940  13.160  2.990
   C    84.880  13.370  5.470
   C    85.790  12.660  11.290
   C    85.380  14.150  11.670
   C    86.320  15.100  10.920
   C    83.920  14.550  11.410
   O    83.640  15.620  10.870
   O    83.030  13.560  11.690
   C    81.700  13.580  11.160
   C    81.250  12.200  11.570
   C    79.810  11.950  11.170
   C    79.600  11.510  9.620
   C    79.310  10.690  11.960
   N    78.810  13.130  11.260
   O    77.550  13.010  11.150
   C    79.380  14.540  11.400
   C    78.560  15.410  12.380
   C    79.240  15.200  10.010
   C    80.850  14.570  11.940
   C    85.870  14.480  13.160
   C    85.060  13.890  14.450
   C    83.710  14.620  14.700
   C    85.970  14.250  15.630
   O    85.740  15.110  16.430
   O    87.030  13.410  15.730
   C    87.990  13.440  16.790
   C    87.650  12.310  17.850
   C    88.490  12.220  19.120
   C    88.400  10.730  19.630
   C    88.040  13.190  20.190
   N    89.990  12.430  18.860
   O    90.820  12.010  19.740
   C    90.470  13.190  17.570
   C    91.720  12.450  16.980
   C    90.870  14.700  17.910
   C    89.400  13.280  16.400
   C    84.810  12.380  14.390
   H    84.830  3.570  8.210
   H    83.570  2.520  9.000
   H    83.120  3.730  7.890
   H    85.810  4.540  10.350
   H    84.750  3.320  11.070
   H    84.710  4.870  11.710
   H    79.860  3.560  10.390
   H    79.950  5.400  12.180
   H    79.200  6.500  10.970
   H    78.270  2.860  11.780
   H    76.970  3.460  12.900
   H    78.550  3.710  13.410
   H    78.290  6.280  13.380
   H    76.610  5.870  13.380
   H    77.270  7.010  12.180
   H    76.240  3.010  8.680
   H    77.520  2.970  7.580
   H    77.710  2.310  9.250
   H    76.870  6.520  8.610
   H    75.710  5.330  8.120
   H    77.160  5.550  7.210
   H    79.190  6.110  8.830
   H    79.440  4.700  7.990
   H    84.870  5.830  8.610
   H    83.200  6.180  8.260
   H    81.620  7.310  9.040
   H    81.940  8.730  10.090
   H    81.810  7.170  10.820
   H    85.860  6.480  12.820
   H    87.450  5.340  11.380
   H    88.240  6.830  11.020
   H    87.950  3.860  12.850
   H    89.050  3.840  14.070
   H    87.490  4.530  14.450
   H    90.600  6.800  12.470
   H    90.460  5.200  11.810
   H    90.800  5.570  13.520
   H    86.980  6.970  16.200
   H    85.820  8.190  15.700
   H    85.780  6.760  14.830
   H    87.610  10.150  14.860
   H    88.430  9.160  15.890
   H    89.190  9.460  14.380
   H    87.600  8.880  12.370
   H    86.050  8.920  13.150
   H    83.210  9.230  8.400
   H    84.190  8.050  7.630
   H    86.050  10.740  6.900
   H    85.140  9.450  6.380
   H    84.270  10.890  7.080
   H    88.720  7.130  8.220
   H    88.520  7.980  5.630
   H    87.560  6.550  5.480
   H    91.150  7.270  7.080
   H    90.870  7.890  5.530
   H    91.890  6.520  5.620
   H    89.260  6.370  3.740
   H    90.500  5.220  4.060
   H    88.860  4.770  4.350
   H    88.450  3.700  9.760
   H    89.280  5.360  9.560
   H    90.050  3.830  9.270
   H    88.120  3.000  6.270
   H    88.600  2.330  7.770
   H    86.980  2.880  7.490
   H    87.010  5.520  8.850
   H    86.600  5.180  7.190
   H    85.850  10.150  10.620
   H    84.230  10.680  10.220
   H    87.750  11.370  10.030
   H    87.580  13.010  9.370
   H    87.280  11.610  8.340
   H    84.070  14.600  7.100
   H    87.150  14.590  6.430
   H    86.230  15.870  7.340
   H    88.350  15.720  5.080
   H    87.990  17.330  5.490
   H    87.800  16.850  3.850
   H    85.670  18.020  6.390
   H    85.590  18.200  4.690
   H    84.310  17.290  5.390
   H    83.110  15.660  4.600
   H    82.930  14.820  3.130
   H    82.460  13.920  4.410
   H    86.020  13.050  2.920
   H    84.520  12.180  3.200
   H    84.490  13.490  2.060
   H    85.790  12.810  5.240
   H    84.010  12.720  5.570
   H    85.160  11.980  11.860
   H    86.800  12.510  11.640
   H    86.230  16.130  11.270
   H    86.190  15.330  9.860
   H    87.370  14.800  10.940
   H    81.790  13.770  10.090
   H    81.360  12.120  12.650
   H    81.940  11.490  11.110
   H    80.280  10.660  9.540
   H    79.870  12.260  8.870
   H    78.570  11.210  9.440
   H    79.250  10.950  13.020
   H    80.030  9.900  11.760
   H    78.290  10.410  11.700
   H    78.980  16.410  12.490
   H    78.510  14.830  13.300
   H    77.560  15.590  11.980
   H    78.320  15.050  9.450
   H    79.960  14.760  9.310
   H    79.390  16.270  10.150
   H    80.840  14.300  13.000
   H    81.270  15.570  11.870
   H    86.950  14.370  13.290
   H    85.810  15.570  13.160
   H    83.770  15.710  14.690
   H    82.900  14.550  13.970
   H    83.270  14.300  15.640
   H    87.940  14.420  17.260
   H    87.720  11.370  17.310
   H    86.580  12.300  18.080
   H    89.020  10.500  20.500
   H    88.710  10.090  18.800
   H    87.370  10.430  19.780
   H    87.060  13.110  20.670
   H    88.740  13.100  21.020
   H    88.040  14.240  19.930
   H    92.650  12.690  17.500
   H    91.550  11.370  17.030
   H    92.000  12.700  15.960
   H    91.140  15.390  17.110
   H    91.680  14.710  18.650
   H    90.120  15.240  18.490
   H    89.490  12.330  15.860
   H    89.610  14.080  15.690
   H    85.650  11.750  14.110
   H    84.470  12.050  15.370
   H    83.950  12.100  13.770
  