239
PTMA_CHAIN1_time50
 C    89.900  23.840  76.110
   C    89.910  25.400  75.930
   C    88.500  25.990  76.360
   C    90.200  25.670  74.440
   O    89.400  26.310  73.760
   O    91.390  25.250  73.960
   C    91.760  25.500  72.610
   C    92.970  26.410  72.600
   C    93.600  26.420  71.260
   C    92.890  27.310  70.170
   C    95.050  26.940  71.310
   N    93.740  25.050  70.680
   H    94.570  24.800  70.020
   C    92.630  24.000  70.760
   C    91.470  24.180  69.690
   C    93.310  22.690  70.320
   C    92.180  24.080  72.210
   C    91.090  26.060  76.730
   C    91.240  27.560  76.880
   C    91.110  28.340  75.590
   C    90.190  28.020  77.910
   O    89.530  29.100  77.730
   O    90.250  27.230  79.020
   C    89.450  27.420  80.190
   C    88.030  27.220  79.890
   C    87.110  27.680  81.070
   C    87.010  29.140  81.320
   C    85.730  27.070  80.970
   N    87.710  27.160  82.320
   H    87.100  27.080  83.210
   C    89.150  26.820  82.570
   C    89.810  28.070  83.230
   C    89.150  25.680  83.610
   C    89.850  26.480  81.280
   C    92.650  27.760  77.640
   C    93.430  29.100  77.620
   C    94.150  29.090  76.250
   C    94.650  29.050  78.630
   O    95.140  30.100  79.070
   O    94.780  27.870  79.160
   C    95.880  27.540  80.010
   C    97.170  27.420  79.220
   C    98.370  27.270  80.180
   C    99.230  28.590  80.330
   C    99.330  26.210  79.630
   N    97.960  26.910  81.540
   H    98.480  27.380  82.370
   C    96.770  26.080  81.830
   C    96.200  26.720  83.050
   C    97.240  24.630  82.150
   C    95.710  26.170  80.760
   C    92.650  30.500  77.700
   C    92.350  31.370  78.970
   C    92.160  30.420  80.150
   C    93.350  32.440  79.230
   O    93.440  33.010  80.360
   O    94.120  32.780  78.090
   C    95.440  33.320  78.230
   C    96.110  32.840  76.960
   C    97.640  33.030  77.160
   C    98.320  32.980  75.800
   C    98.230  31.900  78.000
   N    97.880  34.270  77.840
   H    98.920  34.490  78.060
   C    96.800  35.320  78.080
   C    97.100  36.060  79.440
   C    97.000  36.270  76.890
   C    95.400  34.830  78.080
   C    90.940  32.140  78.750
   C    90.620  33.440  77.890
   C    90.950  34.790  78.500
   C    91.450  33.290  76.560
   O    92.170  34.200  76.190
   O    91.100  32.350  75.720
   C    91.430  32.300  74.350
   C    92.790  31.710  74.080
   C    93.180  31.820  72.570
   C    93.690  33.200  72.120
   C    94.210  30.750  72.260
   N    91.990  31.560  71.770
   H    92.150  31.440  70.700
   C    90.560  31.730  72.140
   C    89.780  30.530  71.420
   C    90.110  33.060  71.620
   C    90.330  31.560  73.660
   C    89.130  33.410  77.400
   C    87.930  33.790  78.290
   C    88.060  33.260  79.760
   C    86.750  33.150  77.520
   O    85.850  33.800  76.970
   O    86.710  31.820  77.840
   C    85.760  30.900  77.170
   C    86.440  30.270  75.920
   C    85.420  29.650  74.940
   C    86.040  28.500  74.130
   C    84.910  30.650  73.910
   N    84.220  29.060  75.650
   O    83.310  28.570  74.970
   C    84.170  28.930  77.190
   C    84.330  27.440  77.510
   C    82.810  29.550  77.580
   C    85.320  29.620  77.960
   C    87.670  35.300  78.260
   H    90.920  23.460  76.160
   H    89.460  23.620  77.090
   H    89.230  23.400  75.370
   H    88.180  25.990  77.400
   H    87.600  25.720  75.810
   H    88.450  27.060  76.180
   H    91.020  26.010  72.000
   H    92.710  27.450  72.810
   H    93.780  26.150  73.280
   H    93.080  28.360  70.400
   H    91.810  27.140  70.100
   H    93.430  27.110  69.250
   H    95.640  26.500  72.110
   H    94.840  27.930  71.720
   H    95.660  27.030  70.410
   H    90.760  23.350  69.710
   H    91.010  25.140  69.890
   H    91.920  24.370  68.720
   H    92.750  21.840  70.720
   H    94.330  22.600  70.700
   H    93.220  22.620  69.240
   H    93.000  23.780  72.860
   H    91.340  23.390  72.310
   H    91.140  25.590  77.710
   H    92.020  25.750  76.260
   H    91.490  29.360  75.510
   H    90.050  28.480  75.370
   H    91.600  27.860  74.740
   H    89.520  28.460  80.510
   H    87.600  27.610  78.970
   H    87.900  26.150  79.750
   H    86.740  29.660  80.400
   H    86.260  29.370  82.080
   H    87.890  29.670  81.670
   H    85.220  27.070  81.930
   H    85.630  26.090  80.500
   H    85.110  27.790  80.420
   H    90.630  27.760  83.870
   H    90.240  28.790  82.540
   H    89.070  28.720  83.690
   H    88.470  24.880  83.300
   H    90.120  25.210  83.760
   H    88.870  26.030  84.610
   H    89.710  25.460  80.940
   H    90.930  26.460  81.410
   H    93.310  26.980  77.250
   H    92.460  27.500  78.680
   H    93.570  29.080  75.330
   H    94.840  29.930  76.210
   H    94.800  28.210  76.180
   H    95.900  28.460  80.590
   H    97.400  28.300  78.610
   H    97.100  26.520  78.600
   H    99.650  28.850  79.360
   H    100.010  28.420  81.070
   H    98.580  29.450  80.500
   H    99.440  26.310  78.550
   H    100.260  26.090  80.180
   H    98.980  25.190  79.770
   H    95.470  26.050  83.500
   H    95.650  27.650  82.910
   H    97.000  26.770  83.790
   H    98.160  24.590  82.730
   H    96.620  24.050  82.840
   H    97.350  23.930  81.330
   H    94.700  26.250  81.150
   H    95.760  25.270  80.150
   H    91.690  30.380  77.200
   H    93.290  31.120  77.060
   H    93.040  29.940  80.580
   H    91.460  29.610  79.960
   H    91.860  31.000  81.030
   H    95.880  33.000  79.170
   H    95.640  33.430  76.170
   H    95.750  31.850  76.690
   H    97.860  32.190  75.200
   H    99.390  32.760  75.840
   H    98.160  33.890  75.210
   H    97.800  31.670  78.980
   H    98.160  31.050  77.320
   H    99.260  32.210  78.170
   H    96.780  35.590  80.370
   H    98.160  36.290  79.470
   H    96.620  37.040  79.460
   H    96.390  37.170  76.970
   H    98.020  36.650  76.890
   H    96.760  35.850  75.920
   H    94.890  35.030  77.140
   H    94.820  35.270  78.890
   H    90.210  31.340  78.570
   H    90.640  32.480  79.740
   H    90.430  34.990  79.440
   H    90.690  35.490  77.710
   H    92.010  34.940  78.710
   H    91.530  33.330  74.020
   H    92.740  30.720  74.540
   H    93.490  32.330  74.640
   H    94.420  33.540  72.850
   H    92.990  34.040  72.140
   H    94.340  33.200  71.250
   H    95.130  30.710  72.850
   H    94.510  30.790  71.220
   H    93.670  29.850  72.530
   H    88.700  30.590  71.550
   H    90.070  29.570  71.830
   H    89.980  30.490  70.350
   H    90.650  33.890  72.060
   H    89.020  33.040  71.710
   H    90.330  33.030  70.550
   H    90.320  30.530  74.020
   H    89.360  32.000  73.890
   H    89.040  33.930  76.440
   H    89.030  32.340  77.200
   H    88.770  33.780  80.400
   H    87.110  33.270  80.300
   H    88.270  32.190  79.750
   H    84.880  31.430  76.810
   H    87.130  29.520  76.300
   H    87.080  31.020  75.460
   H    87.100  28.520  73.900
   H    85.590  28.380  73.140
   H    85.970  27.550  74.670
   H    85.780  31.020  73.370
   H    84.220  30.240  73.180
   H    84.420  31.390  74.540
   H    84.510  27.220  78.560
   H    83.590  26.710  77.170
   H    85.250  27.100  77.030
   H    82.030  29.050  77.010
   H    82.840  30.600  77.290
   H    82.520  29.270  78.600
   H    86.150  28.930  78.130
   H    84.980  29.880  78.960
   H    87.740  35.700  77.250
   H    86.710  35.600  78.670
   H    88.470  35.690  78.890
  