239
PTMA_CHAIN7_time0point005
 C    102.730  11.210  16.120
   C    102.610  12.710  16.490
   C    103.600  12.920  17.690
   C    101.150  12.900  16.890
   O    100.820  13.050  18.070
   O    100.260  12.610  15.950
   C    98.950  12.290  16.280
   C    98.080  13.500  16.610
   C    96.660  13.060  17.020
   C    96.740  12.900  18.600
   C    95.670  14.280  16.720
   N    96.160  11.770  16.440
   O    94.910  11.560  16.510
   C    96.770  11.460  15.070
   C    96.410  10.000  14.750
   C    96.300  12.360  13.940
   C    98.330  11.440  15.150
   C    102.940  13.510  15.180
   C    103.390  15.030  15.280
   C    102.310  15.820  16.010
   C    104.790  15.160  15.870
   O    105.060  15.930  16.740
   O    105.690  14.310  15.270
   C    107.100  14.460  15.540
   C    107.560  13.290  16.460
   C    108.240  12.100  15.740
   C    108.750  11.090  16.860
   C    107.210  11.280  14.940
   N    109.430  12.570  14.850
   O    110.590  12.170  15.120
   C    109.300  13.990  14.280
   C    110.110  15.000  15.210
   C    109.860  14.000  12.870
   C    107.810  14.440  14.170
   C    103.500  15.580  13.750
   C    103.520  17.040  13.230
   C    102.020  17.480  13.100
   C    104.220  16.880  11.850
   O    105.420  16.640  11.790
   O    103.380  16.900  10.810
   C    104.020  16.490  9.550
   C    104.880  17.600  8.900
   C    105.480  17.180  7.620
   C    106.700  16.220  7.910
   C    106.150  18.500  7.000
   N    104.530  16.580  6.600
   O    105.030  16.280  5.520
   C    103.480  15.720  7.160
   C    103.930  14.240  7.320
   C    102.210  15.770  6.220
   C    102.890  16.200  8.590
   C    104.260  18.060  14.180
   C    104.910  19.440  13.820
   C    105.980  19.310  12.690
   C    104.110  20.630  13.230
   O    104.470  21.760  13.350
   O    103.070  20.230  12.480
   C    102.480  21.210  11.600
   C    101.940  20.590  10.270
   C    100.410  20.650  10.010
   C    99.630  19.650  10.870
   C    100.180  20.160  8.540
   N    99.840  22.110  10.280
   O    99.510  22.750  9.210
   C    100.550  22.920  11.390
   C    101.480  23.940  10.790
   C    99.490  23.650  12.140
   C    101.400  22.020  12.370
   C    105.750  19.970  14.990
   C    105.160  20.440  16.440
   C    106.090  21.540  16.960
   C    103.780  21.130  16.300
   O    103.650  22.340  16.030
   O    102.760  20.410  16.720
   C    101.630  21.100  17.340
   C    100.600  21.510  16.270
   C    99.490  22.370  17.000
   C    100.030  23.850  16.860
   C    98.170  22.340  16.160
   N    99.300  22.050  18.470
   O    98.260  22.620  19.030
   C    99.620  20.640  18.890
   C    98.560  19.650  18.350
   C    99.600  20.510  20.370
   C    100.990  20.140  18.380
   C    105.130  19.260  17.510
   C    106.300  18.790  18.380
   C    107.490  18.310  17.500
   C    105.830  17.610  19.280
   O    104.730  17.590  19.850
   O    106.800  16.740  19.590
   C    106.700  15.910  20.690
   C    107.360  14.530  20.330
   C    107.400  13.590  21.550
   C    108.440  12.540  21.150
   C    106.060  12.850  21.750
   N    107.780  14.260  22.920
   O    108.370  13.520  23.760
   C    108.240  15.690  22.790
   C    109.730  15.760  22.210
   C    108.310  16.330  24.170
   C    107.320  16.560  21.940
   C    106.780  19.830  19.420
   H    103.770  10.920  15.970
   H    102.410  10.480  16.860
   H    102.160  10.920  15.240
   H    104.580  12.610  17.340
   H    103.320  12.240  18.490
   H    103.540  13.930  18.100
   H    98.950  11.600  17.120
   H    98.560  14.180  17.310
   H    98.100  14.150  15.740
   H    97.300  12.070  19.030
   H    95.710  12.670  18.880
   H    97.120  13.820  19.050
   H    95.950  15.220  17.200
   H    94.680  14.270  17.180
   H    95.630  14.510  15.650
   H    95.340  9.970  14.520
   H    96.870  9.640  13.830
   H    96.780  9.320  15.510
   H    96.740  13.330  14.150
   H    95.230  12.410  13.740
   H    96.820  11.930  13.080
   H    98.720  11.840  14.210
   H    98.680  10.410  15.160
   H    103.730  13.010  14.630
   H    102.050  13.460  14.540
   H    102.510  16.890  16.090
   H    102.110  15.430  17.010
   H    101.380  15.720  15.450
   H    107.230  15.420  16.020
   H    108.250  13.740  17.170
   H    106.710  12.910  17.040
   H    109.410  11.710  17.450
   H    107.860  10.730  17.380
   H    109.300  10.290  16.370
   H    107.550  10.380  14.440
   H    106.800  11.870  14.120
   H    106.390  10.910  15.560
   H    109.900  16.010  14.830
   H    109.760  15.000  16.240
   H    111.190  14.860  15.200
   H    110.940  13.880  12.880
   H    109.390  13.350  12.130
   H    109.760  14.920  12.280
   H    107.360  13.820  13.400
   H    107.860  15.490  13.870
   H    102.820  15.120  13.030
   H    104.420  15.140  13.350
   H    101.600  17.730  14.080
   H    101.800  18.360  12.500
   H    101.430  16.670  12.670
   H    104.510  15.530  9.650
   H    105.690  18.050  9.480
   H    104.220  18.450  8.740
   H    107.250  15.900  7.020
   H    106.380  15.280  8.370
   H    107.420  16.620  8.620
   H    105.260  19.090  6.780
   H    106.750  18.970  7.780
   H    106.680  18.200  6.090
   H    103.050  13.680  7.630
   H    104.740  14.010  8.020
   H    104.230  13.820  6.350
   H    101.870  16.800  6.090
   H    102.500  15.410  5.230
   H    101.460  15.100  6.640
   H    102.220  15.410  8.910
   H    102.310  17.110  8.420
   H    105.020  17.410  14.610
   H    103.700  18.260  15.100
   H    106.530  18.430  13.030
   H    106.750  20.070  12.750
   H    105.630  19.250  11.660
   H    103.260  21.910  11.310
   H    102.080  19.510  10.200
   H    102.480  21.120  9.490
   H    100.030  18.680  10.600
   H    98.560  19.740  10.670
   H    99.810  19.930  11.910
   H    99.100  20.150  8.410
   H    100.570  20.830  7.760
   H    100.600  19.160  8.490
   H    102.050  24.450  11.560
   H    102.170  23.560  10.040
   H    100.900  24.660  10.210
   H    98.780  23.000  12.660
   H    99.880  24.280  12.940
   H    98.870  24.380  11.630
   H    100.790  21.280  12.900
   H    101.970  22.540  13.130
   H    106.570  19.360  15.360
   H    106.210  20.860  14.570
   H    107.140  21.240  17.000
   H    105.800  21.920  17.940
   H    106.050  22.410  16.310
   H    101.930  22.080  17.690
   H    100.150  20.600  15.870
   H    101.140  22.090  15.530
   H    100.100  24.160  15.820
   H    100.870  24.050  17.530
   H    99.330  24.560  17.310
   H    98.320  22.510  15.090
   H    97.390  22.960  16.600
   H    97.770  21.320  16.200
   H    97.560  19.830  18.750
   H    98.850  18.640  18.640
   H    98.430  19.530  17.280
   H    100.190  21.230  20.940
   H    99.960  19.520  20.660
   H    98.640  20.660  20.870
   H    101.000  19.090  18.110
   H    101.650  20.150  19.240
   H    104.390  19.610  18.220
   H    104.690  18.390  17.010
   H    107.780  19.140  16.860
   H    108.270  17.880  18.120
   H    107.150  17.610  16.750
   H    105.660  15.610  20.850
   H    108.350  14.830  19.970
   H    106.810  14.150  19.470
   H    109.390  13.060  21.010
   H    108.290  12.130  20.160
   H    108.480  11.790  21.940
   H    106.160  12.180  22.610
   H    105.370  13.670  21.930
   H    105.790  12.260  20.870
   H    110.060  16.800  22.280
   H    110.410  15.180  22.840
   H    109.690  15.450  21.170
   H    108.700  17.350  24.110
   H    109.000  15.860  24.870
   H    107.460  16.270  24.840
   H    107.790  17.530  21.780
   H    106.550  16.950  22.610
   H    105.980  20.400  19.890
   H    107.460  19.530  20.210
   H    107.470  20.480  18.880
  