239
PTMA_CHAIN6_frame5
 C    60.140  39.580  35.940
   C    61.490  38.940  36.210
   C    61.210  37.490  35.610
   C    61.590  38.910  37.750
   O    61.300  37.910  38.450
   O    61.940  40.150  38.260
   C    61.650  40.480  39.580
   C    62.880  41.170  40.200
   C    62.690  41.770  41.620
   C    63.000  40.730  42.690
   C    63.770  42.840  41.740
   N    61.350  42.510  41.800
   O    61.230  43.160  42.830
   C    60.110  42.160  41.000
   C    59.360  41.050  41.770
   C    59.200  43.300  40.760
   C    60.500  41.520  39.620
   C    62.530  39.830  35.380
   C    64.080  39.520  35.280
   C    64.820  39.630  36.620
   C    64.330  38.050  34.740
   O    64.720  37.120  35.440
   O    63.900  37.940  33.500
   C    63.920  36.660  32.860
   C    62.670  36.520  31.940
   C    62.710  35.270  31.110
   C    62.230  34.030  31.840
   C    61.630  35.470  29.920
   N    64.070  34.960  30.500
   O    64.210  33.920  29.820
   C    65.310  35.620  31.040
   C    66.020  34.570  31.860
   C    66.330  35.960  29.840
   C    65.070  36.840  31.860
   C    64.550  40.690  34.290
   C    66.060  41.100  34.080
   C    66.690  41.750  35.310
   C    65.850  42.080  32.880
   O    65.880  41.760  31.690
   O    65.710  43.370  33.370
   C    65.470  44.410  32.500
   C    66.760  45.030  31.960
   C    66.410  46.120  30.970
   C    65.950  45.490  29.660
   C    67.690  46.930  30.680
   N    65.360  47.120  31.540
   O    65.210  48.220  30.940
   C    64.390  46.740  32.590
   C    63.010  46.380  31.930
   C    64.080  47.940  33.530
   C    64.850  45.550  33.380
   C    66.900  39.880  33.600
   C    68.430  39.840  33.370
   C    68.780  40.960  32.340
   C    69.280  39.950  34.720
   O    70.200  40.740  34.800
   O    68.930  39.100  35.670
   C    69.560  39.140  36.970
   C    68.880  40.140  37.860
   C    69.670  40.440  39.150
   C    68.620  41.100  40.140
   C    70.880  41.340  38.910
   N    70.140  39.130  39.810
   O    70.530  39.150  40.970
   C    70.170  37.770  39.140
   C    71.600  37.300  39.000
   C    69.400  36.690  40.090
   C    69.560  37.740  37.710
   C    68.770  38.500  32.590
   C    70.130  37.750  32.580
   C    71.350  38.720  32.530
   C    70.050  36.770  33.780
   O    70.980  36.700  34.580
   O    68.920  35.950  33.820
   C    68.700  35.100  34.980
   C    67.270  35.340  35.610
   C    66.620  34.250  36.610
   C    66.500  34.770  38.000
   C    65.140  33.910  36.230
   N    67.350  32.900  36.650
   O    66.950  32.020  37.420
   C    68.620  32.650  35.840
   C    68.650  31.180  35.350
   C    69.850  32.830  36.810
   C    68.760  33.600  34.620
   C    70.170  36.860  31.280
   C    71.410  35.890  30.920
   C    72.750  36.650  30.590
   C    70.890  35.170  29.640
   O    70.470  34.010  29.630
   O    70.990  36.010  28.530
   C    70.460  35.580  27.330
   C    69.040  36.140  27.260
   C    68.250  35.670  26.020
   C    67.060  36.700  25.980
   C    67.710  34.220  26.080
   N    69.140  35.700  24.730
   O    68.580  35.930  23.670
   C    70.640  35.450  24.800
   C    71.260  36.030  23.450
   C    71.060  33.950  24.660
   C    71.230  36.090  26.100
   C    71.710  34.790  31.980
   H    59.320  38.900  36.160
   H    60.020  40.510  36.500
   H    59.990  39.850  34.900
   H    60.860  37.400  34.580
   H    60.450  36.950  36.170
   H    62.040  36.780  35.670
   H    61.240  39.660  40.160
   H    63.660  40.410  40.140
   H    63.220  41.950  39.520
   H    63.960  40.270  42.500
   H    62.310  39.920  42.910
   H    63.140  41.310  43.610
   H    63.390  43.680  41.170
   H    64.790  42.620  41.440
   H    63.900  43.180  42.770
   H    59.200  41.390  42.800
   H    58.400  40.820  41.310
   H    59.910  40.110  41.880
   H    59.700  44.000  40.100
   H    58.850  43.790  41.670
   H    58.270  42.980  40.280
   H    60.690  42.370  38.970
   H    59.570  41.010  39.330
   H    62.200  39.920  34.340
   H    62.380  40.860  35.690
   H    64.550  38.900  37.390
   H    64.750  40.600  37.110
   H    65.830  39.310  36.380
   H    64.080  35.850  33.580
   H    61.810  36.560  32.620
   H    62.460  37.400  31.330
   H    62.940  33.640  32.570
   H    61.230  34.150  32.270
   H    62.110  33.140  31.220
   H    61.670  36.400  29.360
   H    60.710  35.410  30.500
   H    61.690  34.620  29.240
   H    65.490  34.270  32.760
   H    66.220  33.680  31.270
   H    66.950  34.940  32.300
   H    65.880  36.730  29.220
   H    67.360  36.240  30.070
   H    66.430  35.090  29.180
   H    64.890  37.760  31.300
   H    65.980  37.020  32.440
   H    64.140  41.640  34.640
   H    64.080  40.410  33.350
   H    66.090  42.510  35.800
   H    67.040  41.000  36.020
   H    67.550  42.350  34.990
   H    64.760  44.140  31.710
   H    67.310  44.200  31.520
   H    67.410  45.290  32.800
   H    66.700  44.830  29.210
   H    65.790  46.250  28.900
   H    65.060  44.870  29.780
   H    68.510  46.220  30.530
   H    67.710  47.450  29.720
   H    67.940  47.730  31.380
   H    62.320  46.150  32.750
   H    63.220  45.500  31.320
   H    62.540  47.110  31.280
   H    63.160  48.450  33.250
   H    63.860  47.720  34.570
   H    64.770  48.780  33.500
   H    64.010  45.250  34.010
   H    65.590  45.920  34.090
   H    66.450  39.540  32.670
   H    66.620  39.030  34.220
   H    69.870  40.880  32.270
   H    68.530  41.950  32.720
   H    68.400  40.850  31.320
   H    70.610  39.310  36.730
   H    67.900  39.770  38.130
   H    68.660  41.060  37.320
   H    67.700  41.400  39.640
   H    69.060  41.990  40.580
   H    68.290  40.400  40.910
   H    71.570  40.820  38.240
   H    70.650  42.280  38.410
   H    71.390  41.560  39.850
   H    72.190  37.610  39.860
   H    71.780  36.230  38.870
   H    71.940  37.830  38.100
   H    69.960  36.400  40.980
   H    68.360  37.020  40.180
   H    69.420  35.770  39.500
   H    68.550  37.330  37.650
   H    70.080  37.030  37.070
   H    67.920  37.850  32.810
   H    68.570  38.590  31.530
   H    71.330  39.440  31.710
   H    72.350  38.320  32.370
   H    71.530  39.180  33.500
   H    69.320  35.340  35.850
   H    66.670  35.480  34.710
   H    67.150  36.320  36.080
   H    65.940  35.700  37.990
   H    67.470  34.840  38.500
   H    65.810  34.090  38.500
   H    65.030  33.800  35.150
   H    64.470  34.680  36.600
   H    64.810  33.010  36.730
   H    67.900  30.900  34.600
   H    68.680  30.480  36.180
   H    69.640  31.060  34.910
   H    69.770  32.200  37.700
   H    69.870  33.840  37.220
   H    70.820  32.650  36.350
   H    67.970  33.380  33.910
   H    69.710  33.390  34.130
   H    69.180  36.410  31.180
   H    70.190  37.550  30.440
   H    73.360  36.770  31.490
   H    73.460  36.080  29.980
   H    72.530  37.590  30.100
   H    70.410  34.490  27.330
   H    69.050  37.220  27.410
   H    68.560  35.690  28.120
   H    66.540  36.510  25.040
   H    67.310  37.760  25.930
   H    66.430  36.570  26.850
   H    68.380  33.440  26.440
   H    66.750  34.240  26.610
   H    67.300  33.890  25.130
   H    70.980  37.060  23.240
   H    72.350  36.100  23.550
   H    71.130  35.440  22.550
   H    72.120  33.690  24.620
   H    70.660  33.460  23.780
   H    70.680  33.420  25.540
   H    71.160  37.170  26.210
   H    72.220  35.650  26.250
   H    70.830  34.170  32.150
   H    72.510  34.170  31.590
   H    72.100  35.180  32.920
  