239
PTMA_CHAIN6_time2
 C    63.850  31.410  27.020
   C    65.270  31.270  27.750
   C    66.240  30.950  26.610
   C    65.160  30.020  28.730
   O    65.540  28.870  28.470
   O    64.830  30.430  29.910
   C    64.620  29.410  30.960
   C    65.640  29.420  32.080
   C    65.320  28.240  33.070
   C    66.110  26.920  32.740
   C    65.590  28.640  34.530
   N    63.850  28.020  33.110
   H    63.420  27.360  33.870
   C    62.750  28.650  32.360
   C    61.950  27.710  31.330
   C    61.660  29.030  33.380
   C    63.340  29.820  31.600
   C    65.520  32.650  28.490
   C    66.960  33.100  28.860
   C    67.670  31.980  29.680
   C    67.710  33.490  27.570
   O    68.850  32.990  27.360
   O    66.920  34.090  26.620
   C    67.510  34.690  25.520
   C    67.300  33.740  24.380
   C    67.660  34.300  22.990
   C    69.080  33.850  22.640
   C    66.620  33.860  21.980
   N    67.580  35.780  22.920
   H    67.850  36.300  22.000
   C    67.060  36.630  23.970
   C    68.150  37.680  24.290
   C    65.870  37.360  23.350
   C    66.720  35.930  25.230
   C    66.670  34.370  29.820
   C    67.750  35.470  30.330
   C    66.950  36.110  31.530
   C    68.080  36.470  29.200
   O    68.570  36.140  28.110
   O    67.850  37.700  29.460
   C    67.820  38.700  28.400
   C    69.000  39.660  28.760
   C    68.880  40.940  27.960
   C    70.040  41.220  26.990
   C    68.780  42.160  28.930
   N    67.560  41.040  27.120
   H    67.640  41.660  26.230
   C    66.220  40.460  27.620
   C    65.470  40.080  26.320
   C    65.410  41.620  28.330
   C    66.440  39.320  28.620
   C    69.110  34.770  30.780
   C    70.290  35.570  31.520
   C    70.770  36.900  30.870
   C    69.940  35.990  33.010
   O    70.530  36.840  33.630
   O    68.980  35.330  33.490
   C    68.470  35.550  34.900
   C    67.720  36.900  35.180
   C    67.290  37.020  36.640
   C    66.170  38.140  36.770
   C    68.400  37.480  37.630
   N    66.670  35.710  37.040
   H    65.930  35.780  37.840
   C    67.020  34.330  36.610
   C    68.110  33.700  37.530
   C    65.810  33.500  36.720
   C    67.500  34.470  35.190
   C    71.630  34.730  31.460
   C    72.270  33.900  32.620
   C    73.380  33.110  31.880
   C    72.970  34.780  33.640
   O    73.760  35.630  33.210
   O    72.580  34.680  34.900
   C    73.180  35.510  35.890
   C    72.180  36.420  36.540
   C    72.920  37.390  37.550
   C    73.580  38.550  36.710
   C    72.120  37.940  38.680
   N    74.100  36.740  38.200
   H    74.630  37.320  38.960
   C    74.160  35.300  38.330
   C    73.330  34.670  39.420
   C    75.680  34.980  38.670
   C    73.810  34.650  37.010
   C    71.210  32.910  33.240
   C    71.560  31.520  33.810
   C    72.580  31.530  34.990
   C    72.030  30.550  32.700
   O    73.040  29.930  32.760
   O    71.210  30.440  31.700
   C    71.250  29.470  30.670
   C    69.970  28.670  30.670
   C    70.000  27.460  29.710
   C    68.590  26.870  29.400
   C    70.830  26.280  30.250
   N    70.620  27.820  28.380
   O    70.760  26.960  27.480
   C    71.120  29.220  28.110
   C    70.180  30.030  27.160
   C    72.440  29.010  27.260
   C    71.440  30.130  29.360
   C    70.240  30.940  34.360
   H    63.040  31.610  27.720
   H    63.870  32.030  26.120
   H    63.680  30.380  26.700
   H    67.210  30.660  27.000
   H    66.320  31.820  25.950
   H    65.920  30.160  25.920
   H    64.520  28.430  30.500
   H    66.670  29.310  31.740
   H    65.620  30.400  32.570
   H    65.780  26.620  31.750
   H    65.970  26.130  33.480
   H    67.190  26.990  32.740
   H    65.880  27.830  35.210
   H    64.850  29.090  35.190
   H    66.510  29.230  34.570
   H    61.030  28.210  31.030
   H    62.430  27.580  30.360
   H    61.750  26.720  31.760
   H    61.020  28.220  33.710
   H    61.070  29.860  33.000
   H    62.130  29.510  34.240
   H    63.570  30.720  32.180
   H    62.680  30.170  30.810
   H    65.030  33.500  28.010
   H    64.940  32.700  29.410
   H    67.750  30.960  29.310
   H    67.160  31.860  30.640
   H    68.680  32.290  29.980
   H    68.580  34.860  25.600
   H    67.850  32.810  24.490
   H    66.280  33.350  24.320
   H    69.040  32.770  22.710
   H    69.420  34.170  21.650
   H    69.780  34.160  23.420
   H    65.670  34.350  22.200
   H    66.570  32.770  22.020
   H    66.850  34.120  20.950
   H    67.710  38.650  24.520
   H    68.850  37.450  25.100
   H    68.770  37.890  23.420
   H    66.150  38.070  22.580
   H    65.060  36.780  22.880
   H    65.420  37.940  24.160
   H    65.670  35.650  25.160
   H    66.820  36.580  26.100
   H    66.130  33.980  30.690
   H    65.910  34.950  29.300
   H    66.650  35.360  32.260
   H    67.500  36.930  31.990
   H    66.080  36.670  31.200
   H    67.890  38.280  27.400
   H    69.910  39.140  28.450
   H    69.130  39.860  29.820
   H    70.050  40.540  26.130
   H    70.990  41.130  27.510
   H    69.970  42.230  26.580
   H    68.450  43.070  28.430
   H    68.120  42.010  29.790
   H    69.770  42.490  29.250
   H    65.220  40.980  25.750
   H    64.530  39.600  26.600
   H    66.010  39.500  25.580
   H    65.900  41.870  29.270
   H    65.330  42.550  27.750
   H    64.380  41.370  28.560
   H    65.650  38.560  28.650
   H    66.320  39.710  29.630
   H    69.560  34.260  29.930
   H    68.870  34.020  31.540
   H    70.960  36.850  29.790
   H    71.600  37.360  31.400
   H    70.040  37.690  31.010
   H    69.350  35.440  35.530
   H    66.860  37.070  34.530
   H    68.380  37.760  35.040
   H    65.290  37.960  36.150
   H    66.640  39.020  36.330
   H    65.780  38.360  37.760
   H    67.940  37.560  38.610
   H    69.360  36.960  37.640
   H    68.680  38.510  37.390
   H    68.890  33.130  37.030
   H    68.650  34.520  38.000
   H    67.750  32.960  38.250
   H    65.080  33.870  36.010
   H    66.090  32.480  36.420
   H    65.430  33.450  37.740
   H    66.620  34.630  34.560
   H    68.010  33.530  34.990
   H    71.470  34.060  30.620
   H    72.450  35.390  31.180
   H    74.170  33.800  31.560
   H    73.140  32.440  31.060
   H    73.900  32.570  32.670
   H    73.980  36.120  35.470
   H    71.410  35.770  36.950
   H    71.720  36.930  35.690
   H    74.500  38.300  36.180
   H    73.820  39.460  37.270
   H    72.940  38.880  35.890
   H    71.940  37.130  39.390
   H    71.150  38.210  38.280
   H    72.550  38.760  39.260
   H    73.580  35.120  40.380
   H    73.580  33.630  39.610
   H    72.260  34.740  39.230
   H    75.780  33.910  38.530
   H    75.850  35.140  39.730
   H    76.330  35.680  38.140
   H    73.230  33.740  37.180
   H    74.720  34.260  36.560
   H    70.660  33.340  34.080
   H    70.400  32.800  32.520
   H    72.250  32.090  35.870
   H    72.780  30.520  35.340
   H    73.540  32.010  34.850
   H    72.050  28.750  30.810
   H    69.220  29.410  30.370
   H    69.760  28.340  31.690
   H    67.890  27.570  28.940
   H    68.070  26.430  30.250
   H    68.590  26.010  28.720
   H    70.750  25.390  29.630
   H    71.900  26.510  30.150
   H    70.670  26.110  31.320
   H    70.670  30.960  26.890
   H    69.960  29.520  26.220
   H    69.210  30.400  27.500
   H    72.940  28.120  27.640
   H    72.990  29.940  27.160
   H    72.140  28.860  26.220
   H    70.740  30.940  29.220
   H    72.370  30.660  29.170
   H    69.690  31.530  35.100
   H    69.530  30.800  33.550
   H    70.410  29.920  34.710
  