239
PTMA_CHAIN1_frame10
 C    10.790  28.300  68.580
   C    10.630  26.720  68.460
   C    11.390  26.170  69.680
   C    11.290  26.220  67.130
   O    11.360  24.960  66.960
   O    11.890  27.110  66.320
   C    12.490  26.760  65.120
   C    11.430  26.880  64.030
   C    11.850  26.840  62.540
   C    12.090  25.350  62.020
   C    10.830  27.510  61.570
   N    13.260  27.530  62.390
   O    13.470  28.240  61.450
   C    14.260  27.540  63.540
   C    15.050  26.210  63.500
   C    15.400  28.620  63.390
   C    13.580  27.780  64.900
   C    9.090  26.350  68.650
   C    8.050  26.500  67.460
   C    8.130  27.900  66.900
   C    8.280  25.510  66.350
   O    8.490  25.860  65.160
   O    8.390  24.320  66.840
   C    9.030  23.240  66.190
   C    9.460  22.390  67.350
   C    10.310  21.130  67.000
   C    11.760  21.450  66.810
   C    10.350  20.080  68.160
   N    9.720  20.400  65.790
   O    10.240  19.380  65.350
   C    8.530  20.990  64.980
   C    8.970  21.070  63.560
   C    7.290  20.010  65.050
   C    7.950  22.350  65.470
   C    6.690  26.140  68.160
   C    5.300  26.080  67.540
   C    5.090  27.280  66.670
   C    4.400  26.170  68.870
   O    4.790  25.570  69.870
   O    3.230  26.900  68.720
   C    2.540  27.290  69.910
   C    1.310  26.410  70.240
   C    0.540  26.840  71.540
   C    1.360  26.440  72.800
   C    -0.740  26.050  71.590
   N    0.280  28.320  71.560
   O    -0.590  28.680  72.290
   C    1.140  29.330  70.800
   C    2.160  30.030  71.730
   C    0.240  30.420  70.240
   C    1.940  28.670  69.600
   C    4.960  24.710  66.820
   C    3.560  23.950  66.900
   C    3.370  23.310  68.210
   C    2.290  24.900  66.610
   O    1.170  24.890  67.220
   O    2.580  25.750  65.630
   C    1.570  26.600  65.050
   C    1.180  27.820  65.980
   C    0.150  28.810  65.450
   C    0.330  30.180  66.230
   C    -1.290  28.190  65.740
   N    0.280  29.060  63.990
   O    -0.270  30.060  63.610
   C    0.830  27.960  63.080
   C    -0.300  27.070  62.660
   C    1.400  28.620  61.840
   C    2.000  27.260  63.770
   C    3.660  22.630  66.010
   C    2.960  22.400  64.640
   C    1.460  22.180  64.880
   C    3.190  23.560  63.750
   O    2.260  24.160  63.170
   O    4.500  23.880  63.630
   C    5.030  24.670  62.590
   C    5.540  25.970  63.200
   C    5.990  26.960  62.150
   C    4.810  27.730  61.430
   C    6.920  27.950  62.870
   N    6.810  26.390  61.050
   O    7.530  27.130  60.370
   C    6.820  24.920  60.780
   C    8.240  24.460  60.540
   C    5.960  24.740  59.490
   C    6.300  24.040  61.980
   C    3.570  21.100  64.010
   C    3.050  20.230  62.800
   C    4.330  19.710  62.090
   C    2.300  21.030  61.700
   O    2.840  21.870  60.980
   O    1.020  20.590  61.560
   C    0.150  21.310  60.820
   C    -0.230  20.520  59.570
   C    -1.210  21.370  58.650
   C    -1.740  20.440  57.510
   C    -0.510  22.610  58.050
   N    -2.410  21.790  59.490
   O    -3.550  21.690  59.060
   C    -2.300  22.270  60.930
   C    -3.640  21.850  61.690
   C    -2.110  23.810  61.040
   C    -1.150  21.580  61.640
   C    2.150  19.030  63.270
   H    10.480  28.850  67.690
   H    10.120  28.550  69.400
   H    11.760  28.510  69.030
   H    12.460  26.110  69.480
   H    11.110  25.130  69.770
   H    11.130  26.800  70.540
   H    13.020  25.810  65.080
   H    10.680  26.120  64.230
   H    10.930  27.820  64.280
   H    13.060  25.230  61.530
   H    11.300  25.120  61.300
   H    11.920  24.660  62.850
   H    10.850  28.600  61.620
   H    9.890  27.000  61.820
   H    11.070  27.220  60.550
   H    15.430  26.170  62.480
   H    15.940  26.110  64.120
   H    14.400  25.340  63.600
   H    15.010  29.630  63.510
   H    15.760  28.560  62.360
   H    16.270  28.510  64.040
   H    13.120  28.750  65.080
   H    14.320  27.670  65.690
   H    9.060  25.310  68.980
   H    8.720  26.950  69.480
   H    9.100  28.020  66.420
   H    7.960  28.650  67.670
   H    7.460  28.050  66.050
   H    9.820  23.510  65.490
   H    10.000  23.020  68.060
   H    8.590  21.950  67.830
   H    12.290  20.560  66.470
   H    12.030  22.250  66.120
   H    12.110  21.880  67.750
   H    9.360  19.810  68.540
   H    10.940  20.420  69.020
   H    10.700  19.080  67.920
   H    9.690  21.890  63.490
   H    9.230  20.050  63.280
   H    8.100  21.370  62.980
   H    6.950  20.010  66.090
   H    6.510  20.320  64.370
   H    7.580  18.990  64.790
   H    7.020  22.390  66.030
   H    7.590  22.980  64.660
   H    6.750  26.900  68.940
   H    6.750  25.170  68.650
   H    5.470  28.170  67.150
   H    5.510  27.240  65.660
   H    4.020  27.500  66.590
   H    3.140  27.330  70.820
   H    1.760  25.420  70.310
   H    0.670  26.540  69.360
   H    2.360  26.830  72.590
   H    1.420  25.370  72.960
   H    0.930  26.900  73.690
   H    -1.250  26.160  70.640
   H    -0.540  24.990  71.760
   H    -1.540  26.440  72.220
   H    2.810  29.230  72.070
   H    1.700  30.540  72.570
   H    2.730  30.750  71.140
   H    -0.480  29.920  69.590
   H    -0.420  30.880  70.980
   H    0.830  31.120  69.660
   H    2.720  29.220  69.060
   H    1.220  28.570  68.790
   H    5.710  24.030  67.230
   H    5.190  24.860  65.770
   H    2.950  23.980  68.960
   H    4.320  22.820  68.420
   H    2.560  22.580  68.170
   H    0.800  25.860  64.810
   H    2.050  28.320  66.410
   H    0.820  27.390  66.910
   H    0.600  30.060  67.280
   H    -0.550  30.810  66.160
   H    1.160  30.770  65.840
   H    -1.400  27.840  66.770
   H    -2.060  28.950  65.540
   H    -1.570  27.350  65.110
   H    -1.030  27.670  62.120
   H    0.030  26.440  61.830
   H    -0.840  26.550  63.460
   H    0.790  29.340  61.280
   H    2.260  29.290  61.920
   H    1.750  27.920  61.090
   H    2.850  27.890  64.030
   H    2.440  26.650  62.980
   H    4.690  22.340  65.820
   H    3.460  21.660  66.480
   H    1.470  21.350  65.580
   H    0.930  21.750  64.030
   H    0.840  22.980  65.290
   H    4.300  24.800  61.780
   H    6.330  25.690  63.890
   H    4.750  26.470  63.760
   H    5.110  28.210  60.500
   H    4.260  28.390  62.100
   H    4.110  26.950  61.150
   H    6.420  28.410  63.710
   H    7.510  28.670  62.290
   H    7.750  27.390  63.290
   H    8.110  23.390  60.360
   H    8.780  24.440  61.480
   H    8.750  24.930  59.700
   H    4.880  24.850  59.610
   H    6.140  23.760  59.050
   H    6.270  25.360  58.650
   H    7.080  24.150  62.740
   H    5.980  23.030  61.760
   H    4.540  21.510  63.750
   H    3.870  20.520  64.890
   H    5.030  19.240  62.780
   H    4.110  19.020  61.280
   H    4.880  20.590  61.760
   H    0.480  22.260  60.420
   H    -0.630  19.530  59.790
   H    0.690  20.470  58.990
   H    -0.950  20.260  56.780
   H    -2.630  20.830  57.010
   H    -1.940  19.430  57.860
   H    0.380  22.320  57.510
   H    -1.110  23.090  57.280
   H    -0.280  23.400  58.770
   H    -4.610  22.280  61.470
   H    -3.740  20.770  61.660
   H    -3.560  22.220  62.710
   H    -1.290  24.250  60.470
   H    -2.090  24.130  62.080
   H    -3.070  24.140  60.630
   H    -1.470  20.680  62.170
   H    -0.860  22.230  62.460
   H    1.250  19.360  63.800
   H    1.800  18.440  62.430
   H    2.620  18.410  64.030
  