239
PTMA_CHAIN1_frame8
 C    7.140  25.630  62.830
   C    6.510  24.260  62.330
   C    7.590  23.160  62.610
   C    6.380  24.310  60.830
   O    5.840  23.400  60.220
   O    6.800  25.430  60.260
   C    6.620  25.650  58.880
   C    5.480  26.630  58.580
   C    5.110  26.810  57.080
   C    4.130  25.710  56.680
   C    4.340  28.130  56.890
   N    6.340  26.620  56.160
   O    6.220  26.630  54.950
   C    7.700  26.510  56.760
   C    8.460  25.270  56.120
   C    8.560  27.700  56.310
   C    7.770  26.390  58.290
   C    5.200  23.820  63.070
   C    3.740  24.400  62.780
   C    3.860  25.900  62.450
   C    3.170  23.670  61.470
   O    2.890  24.340  60.490
   O    2.970  22.350  61.580
   C    2.920  21.560  60.450
   C    3.980  20.500  60.600
   C    4.090  19.660  59.320
   C    4.660  20.410  58.130
   C    5.080  18.470  59.550
   N    2.730  19.170  58.800
   O    2.640  18.110  58.180
   C    1.390  19.940  59.120
   C    0.790  20.650  57.830
   C    0.250  18.960  59.420
   C    1.520  20.910  60.350
   C    2.900  24.050  64.090
   C    1.400  24.320  64.380
   C    1.100  25.720  64.040
   C    1.200  24.050  65.930
   O    1.850  23.160  66.530
   O    0.530  25.100  66.520
   C    0.510  25.270  67.920
   C    -0.740  24.610  68.530
   C    -0.730  24.600  70.030
   C    0.270  23.560  70.530
   C    -2.090  24.060  70.450
   N    -0.420  26.000  70.620
   O    -0.820  26.350  71.690
   C    0.340  27.040  69.780
   C    1.850  27.090  70.170
   C    -0.190  28.500  70.010
   C    0.220  26.780  68.270
   C    0.490  23.340  63.540
   C    -0.860  22.550  64.010
   C    -0.490  21.510  65.140
   C    -1.980  23.520  64.570
   O    -2.690  23.240  65.530
   O    -1.870  24.710  64.040
   C    -2.870  25.670  64.200
   C    -2.990  26.350  65.610
   C    -4.190  27.280  65.810
   C    -3.960  27.940  67.250
   C    -5.590  26.480  65.850
   N    -4.210  28.330  64.680
   O    -4.730  29.400  64.890
   C    -3.740  27.930  63.290
   C    -4.900  27.410  62.430
   C    -3.060  29.180  62.500
   C    -2.590  26.840  63.260
   C    -1.390  21.720  62.790
   C    -2.660  22.050  61.880
   C    -3.920  21.860  62.720
   C    -2.550  23.470  61.320
   O    -3.390  24.330  61.490
   O    -1.420  23.630  60.640
   C    -1.310  24.750  59.710
   C    -0.270  25.690  60.220
   C    0.220  26.790  59.160
   C    -1.000  27.780  59.080
   C    1.570  27.420  59.620
   N    0.430  26.240  57.760
   O    1.130  26.890  56.920
   C    -0.290  24.980  57.270
   C    0.660  24.160  56.320
   C    -1.440  25.320  56.340
   C    -0.760  24.080  58.490
   C    -2.600  20.960  60.720
   C    -3.830  20.480  59.770
   C    -3.310  19.680  58.490
   C    -4.630  21.710  59.320
   O    -4.060  22.640  58.740
   O    -5.830  21.810  59.860
   C    -6.570  22.960  59.610
   C    -7.550  22.610  58.480
   C    -8.610  23.680  58.160
   C    -9.590  22.890  57.250
   C    -7.990  24.750  57.270
   N    -9.250  24.180  59.450
   O    -10.470  24.540  59.380
   C    -8.370  24.380  60.680
   C    -9.270  24.520  61.960
   C    -7.670  25.760  60.680
   C    -7.420  23.220  60.840
   C    -4.790  19.380  60.390
   H    8.170  25.870  62.570
   H    6.540  26.520  62.650
   H    7.140  25.560  63.920
   H    7.750  23.080  63.680
   H    8.560  23.530  62.280
   H    7.440  22.140  62.270
   H    6.450  24.670  58.440
   H    4.600  26.330  59.150
   H    5.710  27.560  59.100
   H    4.740  24.820  56.540
   H    3.630  25.940  55.740
   H    3.370  25.510  57.440
   H    4.140  28.340  55.840
   H    4.920  28.960  57.300
   H    3.390  28.160  57.420
   H    9.430  25.110  56.590
   H    7.900  24.380  56.400
   H    8.540  25.340  55.040
   H    9.610  27.570  56.580
   H    8.370  28.670  56.780
   H    8.490  27.840  55.240
   H    7.830  27.380  58.740
   H    8.730  25.940  58.550
   H    5.090  22.740  63.010
   H    5.330  24.050  64.130
   H    2.950  26.480  62.280
   H    4.400  26.010  61.510
   H    4.330  26.460  63.270
   H    3.050  22.180  59.560
   H    4.960  20.910  60.850
   H    3.810  19.850  61.460
   H    4.770  19.750  57.270
   H    4.150  21.340  57.850
   H    5.690  20.690  58.350
   H    4.620  17.780  60.260
   H    5.990  18.640  60.130
   H    5.400  17.890  58.680
   H    -0.120  21.210  58.050
   H    1.400  21.450  57.400
   H    0.640  20.010  56.960
   H    -0.700  19.400  59.740
   H    0.050  18.210  58.660
   H    0.440  18.320  60.280
   H    1.320  20.460  61.320
   H    0.730  21.640  60.140
   H    3.510  24.480  64.880
   H    2.980  22.980  64.240
   H    1.920  26.350  64.380
   H    0.870  25.770  62.970
   H    0.160  26.060  64.470
   H    1.510  25.030  68.290
   H    -0.660  23.580  68.160
   H    -1.680  24.840  68.020
   H    1.180  23.810  69.990
   H    -0.120  22.560  70.370
   H    0.320  23.700  71.610
   H    -2.040  23.900  71.520
   H    -2.900  24.770  70.270
   H    -2.230  23.120  69.910
   H    2.400  27.770  69.520
   H    2.310  26.110  70.040
   H    1.910  27.500  71.180
   H    -1.260  28.700  69.960
   H    0.050  28.910  71.000
   H    0.250  29.280  69.390
   H    0.690  27.490  67.590
   H    -0.850  26.810  68.030
   H    1.130  22.550  63.150
   H    0.070  23.830  62.660
   H    0.550  21.220  65.000
   H    -1.050  20.580  65.240
   H    -0.500  21.920  66.150
   H    -3.850  25.300  63.900
   H    -2.080  26.880  65.900
   H    -3.120  25.590  66.380
   H    -3.110  28.630  67.270
   H    -3.650  27.080  67.840
   H    -4.740  28.530  67.720
   H    -5.860  26.080  64.880
   H    -5.560  25.730  66.640
   H    -6.350  27.110  66.300
   H    -4.550  27.310  61.400
   H    -5.280  26.410  62.650
   H    -5.590  28.250  62.360
   H    -3.780  29.980  62.310
   H    -2.320  29.740  63.080
   H    -2.590  29.000  61.530
   H    -1.630  27.270  63.540
   H    -2.500  26.490  62.230
   H    -0.570  21.660  62.080
   H    -1.550  20.680  63.090
   H    -4.790  21.900  62.070
   H    -4.120  22.650  63.440
   H    -3.850  20.860  63.150
   H    -2.260  25.250  59.530
   H    0.630  25.170  60.540
   H    -0.600  26.130  61.160
   H    -0.750  28.620  58.420
   H    -1.290  28.320  59.980
   H    -1.880  27.380  58.570
   H    1.680  28.270  58.950
   H    2.460  26.790  59.540
   H    1.590  27.700  60.680
   H    1.540  23.830  56.880
   H    1.070  24.760  55.520
   H    0.020  23.370  55.930
   H    -1.320  25.870  55.410
   H    -2.200  25.910  56.840
   H    -2.040  24.420  56.230
   H    0.140  23.530  58.750
   H    -1.390  23.280  58.110
   H    -1.800  21.240  60.030
   H    -2.320  19.970  61.080
   H    -2.280  19.960  58.280
   H    -3.300  18.590  58.570
   H    -3.850  19.950  57.580
   H    -5.950  23.830  59.450
   H    -8.070  21.670  58.660
   H    -7.000  22.550  57.540
   H    -10.270  23.400  56.570
   H    -10.150  22.040  57.660
   H    -9.010  22.380  56.490
   H    -8.550  25.690  57.240
   H    -7.070  25.150  57.690
   H    -7.700  24.440  56.270
   H    -9.830  25.460  62.010
   H    -10.090  23.810  61.990
   H    -8.730  24.260  62.870
   H    -7.350  26.120  61.660
   H    -8.410  26.460  60.300
   H    -6.760  25.800  60.080
   H    -8.070  22.350  60.960
   H    -6.890  23.400  61.770
   H    -5.520  19.050  59.660
   H    -4.120  18.560  60.650
   H    -5.230  19.670  61.350
  