239
PTMA_CHAIN7_time12
 C    1.140  6.710  9.130
   C    1.930  8.030  9.370
   C    3.270  7.710  8.710
   C    2.260  8.250  10.840
   O    3.320  8.780  11.190
   O    1.260  7.940  11.650
   C    1.150  8.030  13.030
   C    0.190  9.070  13.430
   C    0.010  9.140  14.940
   C    1.060  10.050  15.580
   C    -1.370  9.730  15.300
   N    0.320  7.820  15.580
   H    0.260  7.840  16.670
   C    0.370  6.570  14.890
   C    1.500  5.730  15.480
   C    -0.890  5.840  15.230
   C    0.490  6.730  13.430
   C    1.020  9.180  8.660
   C    1.150  10.730  8.960
   C    0.480  10.980  10.320
   C    2.640  11.180  8.980
   O    3.070  11.910  9.870
   O    3.400  10.780  7.950
   C    4.840  11.140  7.880
   C    5.730  10.050  7.360
   C    7.230  10.460  7.380
   C    7.930  10.450  8.780
   C    8.110  9.670  6.430
   N    7.340  11.870  7.010
   H    8.330  12.250  6.800
   C    6.240  12.790  6.720
   C    6.400  13.950  7.750
   C    6.340  13.300  5.270
   C    4.920  12.200  6.850
   C    0.530  11.500  7.760
   C    -0.090  12.970  7.820
   C    -1.270  13.060  8.760
   C    -0.500  13.340  6.360
   O    0.260  13.230  5.360
   O    -1.850  13.490  6.200
   C    -2.490  13.910  5.010
   C    -2.980  15.320  5.230
   C    -3.900  15.840  4.130
   C    -3.200  16.990  3.340
   C    -5.180  16.510  4.680
   N    -4.340  14.830  3.150
   H    -4.990  15.100  2.310
   C    -4.210  13.370  3.360
   C    -3.250  12.850  2.260
   C    -5.570  12.690  3.160
   C    -3.740  13.070  4.790
   C    1.080  13.970  8.280
   C    0.890  15.560  8.440
   C    0.310  16.280  7.110
   C    0.050  15.850  9.720
   O    0.340  15.300  10.760
   O    -0.900  16.800  9.510
   C    -1.850  17.210  10.540
   C    -1.310  18.410  11.350
   C    -2.230  18.840  12.510
   C    -2.150  20.290  12.690
   C    -1.850  18.050  13.800
   N    -3.630  18.410  12.180
   H    -4.340  18.110  12.950
   C    -4.120  18.330  10.800
   C    -5.450  17.650  10.800
   C    -4.470  19.750  10.400
   C    -3.060  17.690  9.850
   C    2.360  15.980  8.630
   C    2.910  17.280  9.220
   C    4.380  17.300  8.890
   C    2.190  18.430  8.430
   O    1.250  18.960  8.860
   O    2.730  18.670  7.210
   C    2.220  19.690  6.360
   C    3.180  20.800  6.440
   C    2.950  21.940  5.440
   C    2.430  23.220  6.200
   C    4.310  22.230  4.660
   N    1.890  21.580  4.460
   H    1.470  22.370  3.830
   C    1.570  20.220  4.010
   C    2.000  19.940  2.550
   C    0.030  20.310  4.090
   C    2.160  19.160  4.940
   C    2.800  17.390  10.770
   C    3.460  18.530  11.690
   C    4.860  18.280  12.040
   C    2.680  18.470  13.070
   O    2.520  19.470  13.710
   O    2.790  17.220  13.610
   C    2.320  16.890  14.920
   C    1.330  15.780  14.810
   C    0.660  15.410  16.130
   C    0.120  13.970  16.020
   C    -0.580  16.240  16.490
   N    1.580  15.510  17.310
   O    1.200  14.920  18.350
   C    2.890  16.140  17.280
   C    3.960  15.160  17.880
   C    2.800  17.450  18.110
   C    3.410  16.430  15.900
   C    3.520  19.960  11.090
   H    0.930  6.630  8.060
   H    1.840  5.910  9.380
   H    0.280  6.640  9.800
   H    3.280  8.190  7.730
   H    3.440  6.650  8.510
   H    4.130  8.230  9.140
   H    2.150  8.110  13.470
   H    0.430  10.080  13.100
   H    -0.780  8.850  12.970
   H    2.030  9.610  15.340
   H    0.980  10.120  16.670
   H    1.150  11.020  15.110
   H    -2.090  9.080  14.800
   H    -1.550  10.800  15.200
   H    -1.460  9.670  16.380
   H    2.500  6.160  15.360
   H    1.230  5.610  16.530
   H    1.580  4.760  15.000
   H    -0.840  4.790  14.930
   H    -1.700  6.230  14.620
   H    -1.110  5.860  16.300
   H    -0.410  6.680  12.810
   H    1.110  5.890  13.130
   H    1.190  9.020  7.600
   H    -0.060  9.050  8.720
   H    0.760  11.960  10.690
   H    0.830  10.310  11.100
   H    -0.610  10.970  10.230
   H    5.230  11.520  8.820
   H    5.730  9.230  8.080
   H    5.360  9.630  6.420
   H    8.860  11.010  8.730
   H    7.330  10.940  9.540
   H    7.870  9.470  9.250
   H    7.580  9.360  5.530
   H    8.320  8.720  6.930
   H    9.060  10.110  6.130
   H    5.810  14.830  7.510
   H    5.980  13.630  8.700
   H    7.420  14.210  8.030
   H    6.040  12.550  4.550
   H    5.760  14.220  5.160
   H    7.320  13.740  5.040
   H    4.610  11.760  5.900
   H    4.150  12.900  7.170
   H    -0.380  10.980  7.480
   H    1.240  11.340  6.950
   H    -1.920  12.190  8.660
   H    -0.810  13.130  9.740
   H    -1.910  13.940  8.620
   H    -1.820  13.990  4.150
   H    -2.120  15.960  5.440
   H    -3.490  15.300  6.190
   H    -3.840  17.400  2.560
   H    -2.290  16.560  2.930
   H    -3.110  17.890  3.950
   H    -4.940  17.270  5.420
   H    -5.770  16.860  3.830
   H    -5.680  15.740  5.260
   H    -3.750  12.660  1.310
   H    -2.760  11.910  2.520
   H    -2.400  13.500  2.040
   H    -5.430  11.610  3.240
   H    -6.330  13.000  3.870
   H    -5.930  12.900  2.150
   H    -3.540  12.000  4.910
   H    -4.530  13.290  5.510
   H    1.920  13.790  7.610
   H    1.290  13.670  9.300
   H    1.030  16.230  6.300
   H    0.140  17.320  7.370
   H    -0.700  15.960  6.840
   H    -2.050  16.350  11.190
   H    -1.170  19.250  10.670
   H    -0.330  18.130  11.760
   H    -3.050  20.550  13.250
   H    -2.050  20.890  11.790
   H    -1.230  20.470  13.250
   H    -2.260  18.380  14.750
   H    -2.380  17.100  13.820
   H    -0.770  17.960  13.890
   H    -5.480  16.610  11.130
   H    -6.290  18.170  11.270
   H    -5.820  17.430  9.800
   H    -4.740  19.680  9.340
   H    -5.290  20.190  10.960
   H    -3.630  20.440  10.300
   H    -2.790  18.430  9.090
   H    -3.520  16.950  9.190
   H    3.040  15.300  9.150
   H    2.760  15.920  7.620
   H    4.790  18.280  9.140
   H    4.570  17.120  7.830
   H    5.010  16.580  9.410
   H    1.200  20.030  6.550
   H    4.160  20.380  6.230
   H    3.300  21.200  7.450
   H    1.620  22.840  6.820
   H    2.000  24.020  5.590
   H    3.210  23.770  6.740
   H    4.620  21.370  4.080
   H    5.100  22.460  5.370
   H    4.190  23.020  3.920
   H    1.650  20.640  1.800
   H    1.570  19.010  2.190
   H    3.090  19.910  2.480
   H    -0.510  19.390  3.880
   H    -0.280  21.090  3.380
   H    -0.280  20.510  5.120
   H    3.170  18.880  4.650
   H    1.640  18.220  4.810
   H    1.730  17.490  10.940
   H    3.050  16.400  11.150
   H    5.260  18.970  12.780
   H    5.010  17.290  12.480
   H    5.450  18.270  11.120
   H    1.920  17.780  15.400
   H    1.750  14.890  14.350
   H    0.630  16.150  14.050
   H    -0.470  13.640  16.870
   H    0.840  13.150  15.910
   H    -0.400  13.770  15.080
   H    -0.750  16.430  17.550
   H    -0.440  17.240  16.090
   H    -1.480  15.750  16.120
   H    4.010  15.280  18.970
   H    3.730  14.120  17.630
   H    4.970  15.280  17.490
   H    1.770  17.770  17.950
   H    3.510  18.220  17.810
   H    2.940  17.160  19.150
   H    3.860  15.480  15.610
   H    4.150  17.210  16.070
   H    4.040  20.130  10.150
   H    2.490  20.280  10.910
   H    4.060  20.680  11.700
  