239
PTMA_CHAIN10_frame9
 C    72.400  60.810  50.470
   C    72.670  62.270  49.820
   C    72.170  63.410  50.880
   C    71.690  62.440  48.630
   O    70.860  63.390  48.440
   O    71.660  61.330  47.860
   C    70.620  61.090  46.900
   C    71.150  60.260  45.780
   C    70.270  59.980  44.580
   C    70.440  61.130  43.530
   C    70.790  58.680  43.900
   N    68.820  59.680  44.950
   O    68.000  59.300  44.030
   C    68.360  60.100  46.330
   C    67.360  61.280  46.260
   C    67.570  58.870  46.850
   C    69.420  60.350  47.440
   C    74.160  62.350  49.410
   C    74.800  63.410  48.540
   C    74.280  63.290  47.090
   C    74.420  64.800  49.150
   O    73.640  65.530  48.530
   O    74.910  65.050  50.440
   C    74.650  66.230  51.120
   C    74.780  65.880  52.600
   C    74.330  67.050  53.500
   C    72.860  67.290  53.310
   C    74.540  66.650  55.010
   N    75.050  68.340  53.170
   O    75.140  69.260  53.970
   C    75.620  68.600  51.780
   C    74.800  69.700  50.980
   C    77.000  69.200  51.890
   C    75.720  67.270  50.970
   C    76.330  63.180  48.630
   C    77.460  63.920  47.830
   C    77.610  63.060  46.520
   C    78.760  63.750  48.760
   O    78.790  64.130  49.960
   O    79.810  63.260  48.160
   C    81.030  63.470  48.840
   C    82.160  63.690  47.780
   C    83.560  64.000  48.340
   C    83.620  65.470  48.900
   C    84.580  63.890  47.210
   N    83.960  63.010  49.450
   O    85.180  62.770  49.640
   C    82.860  62.280  50.230
   C    82.780  63.070  51.490
   C    83.370  60.880  50.650
   C    81.450  62.160  49.550
   C    77.100  65.440  47.550
   C    78.160  66.540  47.090
   C    78.890  66.990  48.420
   C    79.280  66.040  46.140
   O    80.450  66.210  46.320
   O    78.800  65.390  45.150
   C    79.690  65.160  44.110
   C    80.730  64.060  44.290
   C    81.700  63.720  43.120
   C    82.390  62.390  43.450
   C    82.730  64.900  43.060
   N    80.910  63.590  41.820
   O    81.450  62.910  40.920
   C    79.630  64.370  41.620
   C    80.080  65.670  40.900
   C    78.590  63.700  40.740
   C    78.870  64.790  42.860
   C    77.460  67.810  46.390
   C    78.160  68.940  45.480
   C    79.570  69.340  45.980
   C    78.280  68.490  44.010
   O    79.290  68.380  43.330
   O    77.070  68.260  43.560
   C    76.780  68.240  42.180
   C    75.480  67.510  41.950
   C    74.860  67.450  40.560
   C    75.580  66.320  39.750
   C    73.420  66.980  40.650
   N    75.030  68.750  39.800
   O    74.170  69.080  39.050
   C    76.100  69.750  40.150
   C    75.570  71.140  39.890
   C    77.340  69.500  39.300
   C    76.510  69.640  41.610
   C    77.290  70.280  45.460
   C    76.680  71.090  46.700
   C    77.460  70.980  47.990
   C    75.210  70.750  46.910
   O    74.400  71.670  47.050
   O    74.970  69.520  46.690
   C    73.550  69.140  46.580
   C    73.480  67.890  45.700
   C    72.090  67.360  45.500
   C    72.240  66.000  44.810
   C    71.240  68.200  44.530
   N    71.240  67.210  46.760
   O    70.220  66.550  46.780
   C    71.480  68.170  47.950
   C    71.240  67.540  49.370
   C    70.400  69.200  47.820
   C    72.880  68.850  47.930
   C    76.800  72.590  46.320
   H    71.320  60.670  50.470
   H    73.020  60.100  49.930
   H    72.840  60.830  51.470
   H    72.930  63.420  51.670
   H    71.250  63.140  51.390
   H    72.000  64.420  50.500
   H    70.290  62.040  46.480
   H    72.080  60.690  45.410
   H    71.470  59.360  46.290
   H    69.850  60.810  42.660
   H    71.480  61.300  43.260
   H    70.010  62.100  43.790
   H    70.230  57.870  44.360
   H    71.880  58.680  44.010
   H    70.590  58.700  42.830
   H    67.920  62.110  45.820
   H    66.510  61.100  45.610
   H    67.070  61.440  47.300
   H    66.820  58.400  46.220
   H    67.060  59.250  47.740
   H    68.300  58.120  47.150
   H    69.610  59.390  47.920
   H    68.980  60.900  48.270
   H    74.630  62.600  50.360
   H    74.420  61.320  49.170
   H    74.160  62.270  46.710
   H    75.020  63.780  46.460
   H    73.320  63.800  47.010
   H    73.620  66.530  50.920
   H    74.130  65.050  52.880
   H    75.820  65.660  52.840
   H    72.490  68.060  53.990
   H    72.680  67.670  52.310
   H    72.300  66.380  53.530
   H    73.790  67.210  55.570
   H    75.520  66.980  55.350
   H    74.590  65.610  55.350
   H    75.200  69.810  49.970
   H    73.730  69.520  50.860
   H    75.020  70.670  51.420
   H    77.550  69.350  50.960
   H    77.030  70.130  52.440
   H    77.590  68.480  52.450
   H    76.670  66.740  51.070
   H    75.690  67.610  49.930
   H    76.310  62.120  48.390
   H    76.600  63.180  49.690
   H    76.930  63.290  45.700
   H    78.600  63.070  46.070
   H    77.560  61.990  46.710
   H    81.020  64.250  49.590
   H    81.920  64.610  47.240
   H    82.110  62.920  47.010
   H    82.920  65.800  49.660
   H    83.410  66.120  48.050
   H    84.650  65.740  49.150
   H    85.540  64.320  47.500
   H    84.610  62.900  46.750
   H    84.260  64.570  46.420
   H    82.240  62.680  52.360
   H    82.160  63.920  51.200
   H    83.730  63.440  51.870
   H    82.520  60.270  50.970
   H    83.860  60.430  49.790
   H    84.050  60.880  51.500
   H    80.650  61.860  50.240
   H    81.490  61.330  48.840
   H    76.800  65.800  48.530
   H    76.190  65.520  46.960
   H    79.710  67.640  48.110
   H    79.390  66.300  49.100
   H    78.160  67.530  49.020
   H    80.090  66.130  43.820
   H    80.270  63.120  44.610
   H    81.390  64.380  45.090
   H    83.130  62.170  42.680
   H    81.760  61.510  43.280
   H    82.900  62.400  44.410
   H    83.280  64.880  42.110
   H    82.330  65.900  43.230
   H    83.510  64.870  43.820
   H    79.410  66.000  40.100
   H    80.060  66.530  41.560
   H    81.100  65.550  40.540
   H    78.170  62.850  41.280
   H    77.800  64.390  40.460
   H    78.990  63.280  39.810
   H    78.370  63.890  43.210
   H    78.170  65.580  42.580
   H    76.630  67.450  45.790
   H    76.940  68.270  47.220
   H    79.960  70.090  45.290
   H    80.300  68.530  46.040
   H    79.480  69.820  46.960
   H    77.570  67.790  41.600
   H    74.710  68.070  42.490
   H    75.500  66.550  42.450
   H    75.580  65.340  40.240
   H    76.610  66.600  39.570
   H    74.970  66.170  38.860
   H    73.370  65.940  40.990
   H    72.860  66.820  39.720
   H    72.880  67.510  41.420
   H    75.730  71.390  38.840
   H    76.270  71.880  40.290
   H    74.540  71.330  40.200
   H    77.080  69.540  38.240
   H    78.010  68.650  39.470
   H    77.940  70.380  39.540
   H    75.700  70.130  42.150
   H    77.390  70.280  41.660
   H    77.980  70.940  44.960
   H    76.450  70.250  44.760
   H    77.610  69.930  48.230
   H    78.440  71.430  48.120
   H    76.820  71.270  48.830
   H    73.030  69.920  46.020
   H    74.070  67.050  46.060
   H    73.980  68.080  44.750
   H    71.260  65.630  44.510
   H    72.780  65.220  45.350
   H    72.820  66.080  43.890
   H    70.190  67.920  44.640
   H    71.360  69.230  44.840
   H    71.680  68.170  43.530
   H    71.590  68.270  50.090
   H    70.200  67.400  49.670
   H    71.560  66.510  49.560
   H    69.440  68.680  47.850
   H    70.490  69.750  46.880
   H    70.400  69.930  48.640
   H    73.560  68.040  48.200
   H    72.990  69.630  48.690
   H    76.180  72.800  45.440
   H    76.570  73.290  47.130
   H    77.780  72.930  45.970
  