239
PTMA_CHAIN10_frame8
 C    71.120  61.950  52.230
   C    71.810  63.270  51.870
   C    71.320  64.330  52.860
   C    71.310  63.540  50.440
   O    70.560  64.480  50.210
   O    71.650  62.620  49.530
   C    71.250  62.580  48.110
   C    72.250  63.200  47.190
   C    72.040  63.080  45.690
   C    71.180  64.310  45.320
   C    73.350  63.210  44.850
   N    71.290  61.800  45.280
   O    70.940  61.720  44.120
   C    70.750  60.790  46.320
   C    69.260  60.730  46.340
   C    71.210  59.360  45.930
   C    71.220  61.090  47.780
   C    73.320  62.940  52.040
   C    74.580  63.770  51.540
   C    74.590  63.710  49.980
   C    74.430  65.270  52.130
   O    74.060  66.190  51.380
   O    74.710  65.350  53.450
   C    74.400  66.500  54.230
   C    73.580  66.040  55.480
   C    73.360  67.070  56.570
   C    72.140  68.020  56.330
   C    73.000  66.240  57.800
   N    74.700  67.810  56.920
   O    74.800  68.330  58.020
   C    75.700  68.230  55.840
   C    75.350  69.590  55.380
   C    77.180  68.300  56.360
   C    75.740  67.120  54.720
   C    75.810  63.010  52.110
   C    77.300  63.280  51.510
   C    77.550  62.470  50.230
   C    78.200  62.780  52.650
   O    77.910  62.840  53.850
   O    79.390  62.280  52.230
   C    80.040  61.380  53.010
   C    81.470  61.950  53.360
   C    82.350  61.040  54.110
   C    81.960  61.010  55.590
   C    83.750  61.650  54.120
   N    82.410  59.750  53.390
   O    83.450  59.130  53.520
   C    81.200  59.080  52.810
   C    80.510  58.290  53.940
   C    81.550  58.080  51.740
   C    80.190  60.060  52.150
   C    77.560  64.800  51.400
   C    78.930  65.640  51.480
   C    79.230  65.920  53.000
   C    80.170  65.020  50.730
   O    81.220  64.790  51.330
   O    79.840  64.440  49.520
   C    80.770  64.010  48.580
   C    81.290  62.580  48.720
   C    82.460  62.190  47.710
   C    82.600  60.690  47.760
   C    83.850  62.780  48.000
   N    82.070  62.670  46.270
   O    82.480  62.080  45.250
   C    81.160  63.810  46.010
   C    81.920  65.130  45.710
   C    80.330  63.440  44.760
   C    80.180  64.080  47.160
   C    78.670  67.130  51.040
   C    79.790  68.240  50.590
   C    81.060  68.040  51.360
   C    80.110  67.980  49.120
   O    81.030  67.240  48.750
   O    79.320  68.590  48.240
   C    79.590  68.580  46.870
   C    78.360  68.070  46.140
   C    78.280  68.290  44.590
   C    77.970  66.980  43.920
   C    76.980  69.140  44.360
   N    79.390  69.120  44.020
   O    79.580  69.100  42.780
   C    80.290  70.050  44.880
   C    79.990  71.470  44.600
   C    81.810  69.790  44.500
   C    79.990  69.990  46.380
   C    79.390  69.750  50.730
   C    78.680  70.510  51.930
   C    78.980  69.940  53.360
   C    77.170  70.640  51.780
   O    76.640  71.740  51.830
   O    76.680  69.550  51.240
   C    75.530  69.700  50.460
   C    75.660  68.590  49.480
   C    74.390  68.380  48.630
   C    74.570  67.090  47.730
   C    74.260  69.540  47.690
   N    73.110  68.300  49.500
   O    72.130  67.690  48.970
   C    72.990  69.280  50.570
   C    71.830  68.790  51.520
   C    72.470  70.660  50.160
   C    74.340  69.530  51.370
   C    79.310  71.880  51.920
   H    71.390  61.580  53.220
   H    70.050  62.120  52.180
   H    71.300  61.160  51.500
   H    71.620  65.370  52.790
   H    71.580  63.980  53.860
   H    70.230  64.290  52.810
   H    70.250  62.990  47.960
   H    72.330  64.240  47.520
   H    73.240  62.780  47.390
   H    70.250  64.270  45.900
   H    70.760  64.300  44.320
   H    71.610  65.300  45.470
   H    74.090  62.410  44.940
   H    73.820  64.190  44.910
   H    73.140  63.140  43.780
   H    68.870  59.900  46.940
   H    68.810  61.690  46.590
   H    68.780  60.500  45.390
   H    70.890  58.640  46.690
   H    72.290  59.360  45.820
   H    70.860  59.030  44.950
   H    72.240  60.720  47.960
   H    70.560  60.620  48.510
   H    73.450  62.750  53.110
   H    73.480  61.960  51.600
   H    74.300  62.790  49.460
   H    75.480  64.060  49.450
   H    73.790  64.340  49.590
   H    73.900  67.240  53.620
   H    72.580  65.670  55.240
   H    74.130  65.190  55.890
   H    71.330  67.380  55.980
   H    71.780  68.460  57.260
   H    72.260  68.730  55.520
   H    72.810  66.820  58.700
   H    73.910  65.700  58.060
   H    72.180  65.560  57.550
   H    76.070  69.830  54.590
   H    74.400  69.740  54.870
   H    75.340  70.350  56.160
   H    77.820  68.930  55.750
   H    77.190  68.870  57.290
   H    77.620  67.340  56.650
   H    76.350  66.300  55.100
   H    76.270  67.540  53.860
   H    75.590  61.940  52.070
   H    75.780  63.230  53.180
   H    77.370  61.400  50.360
   H    77.060  62.860  49.340
   H    78.580  62.430  49.900
   H    79.550  61.180  53.970
   H    81.280  62.910  53.830
   H    81.980  62.190  52.430
   H    82.630  60.400  56.200
   H    80.940  60.630  55.670
   H    81.940  61.980  56.090
   H    84.170  61.570  53.120
   H    83.770  62.730  54.320
   H    84.400  61.170  54.850
   H    79.790  57.570  53.540
   H    79.980  59.030  54.550
   H    81.210  57.770  54.600
   H    80.750  57.790  51.060
   H    82.400  58.470  51.180
   H    81.850  57.140  52.210
   H    79.200  59.640  51.960
   H    80.630  60.350  51.200
   H    76.980  65.300  52.170
   H    77.080  65.020  50.450
   H    80.190  66.380  53.220
   H    79.290  64.970  53.530
   H    78.500  66.500  53.570
   H    81.560  64.730  48.770
   H    80.540  61.810  48.580
   H    81.610  62.320  49.730
   H    81.810  60.210  47.190
   H    82.510  60.290  48.770
   H    83.520  60.400  47.240
   H    83.780  63.870  47.980
   H    84.110  62.500  49.020
   H    84.590  62.410  47.300
   H    82.510  65.170  44.790
   H    81.180  65.920  45.590
   H    82.510  65.490  46.560
   H    80.850  63.630  43.820
   H    80.010  62.400  44.760
   H    79.500  64.130  44.680
   H    79.400  63.330  47.040
   H    79.720  65.060  47.010
   H    78.050  67.080  50.140
   H    78.010  67.490  51.830
   H    81.500  67.050  51.230
   H    81.070  68.260  52.430
   H    81.750  68.810  51.020
   H    80.430  67.910  46.700
   H    77.510  68.600  46.570
   H    78.250  67.010  46.330
   H    77.670  67.090  42.880
   H    77.280  66.340  44.470
   H    78.890  66.390  43.920
   H    76.120  68.640  44.810
   H    76.750  69.220  43.300
   H    77.200  70.140  44.740
   H    80.470  72.050  45.380
   H    78.980  71.790  44.840
   H    80.170  71.820  43.580
   H    82.430  70.500  45.050
   H    81.880  69.950  43.430
   H    82.120  68.770  44.750
   H    79.170  70.650  46.670
   H    80.810  70.450  46.940
   H    80.280  70.270  50.390
   H    78.840  70.120  49.860
   H    78.440  69.000  53.500
   H    80.010  69.600  53.330
   H    78.810  70.660  54.170
   H    75.550  70.650  49.930
   H    75.920  67.690  50.050
   H    76.450  68.720  48.740
   H    73.730  66.790  47.110
   H    74.790  66.180  48.290
   H    75.460  67.150  47.100
   H    73.330  69.400  47.140
   H    74.320  70.510  48.190
   H    75.020  69.470  46.910
   H    71.970  67.840  52.040
   H    71.470  69.570  52.190
   H    70.890  68.670  50.980
   H    71.920  71.240  50.900
   H    71.960  70.610  49.200
   H    73.260  71.400  49.970
   H    74.530  68.630  51.950
   H    74.120  70.260  52.140
   H    79.100  72.440  51.020
   H    78.830  72.520  52.660
   H    80.380  71.870  52.150
  