239
chain_3_time_0_0045ps_50rad
 C    105.510  54.550  68.870
   C    106.340  55.850  68.820
   C    107.800  55.410  68.730
   C    106.030  56.510  70.170
   O    106.860  56.560  71.080
   O    104.760  56.870  70.260
   C    104.250  57.110  71.590
   C    104.550  58.500  72.140
   C    104.060  58.710  73.590
   C    105.180  58.190  74.530
   C    103.830  60.210  73.810
   N    102.870  57.870  73.840
   H    102.370  58.070  74.790
   C    101.970  57.550  72.600
   C    100.830  56.530  73.070
   C    101.150  58.800  72.170
   C    102.740  56.910  71.560
   C    105.890  56.650  67.610
   C    106.730  57.720  66.940
   C    107.140  58.810  68.000
   C    107.940  57.100  66.230
   O    109.120  57.530  66.340
   O    107.600  56.110  65.400
   C    108.490  55.510  64.480
   C    109.010  54.160  64.920
   C    108.280  52.950  64.240
   C    108.960  51.650  64.820
   C    106.790  52.850  64.760
   N    108.280  53.050  62.710
   O    108.960  52.090  62.130
   C    108.440  54.440  62.130
   C    109.900  54.810  61.770
   C    107.640  54.470  60.840
   C    107.870  55.530  63.100
   C    105.830  58.420  65.750
   C    106.090  59.850  65.150
   C    105.460  60.920  66.060
   C    105.370  59.690  63.760
   O    105.780  58.930  62.870
   O    104.180  60.270  63.710
   C    103.260  59.910  62.630
   C    103.620  60.590  61.290
   C    102.770  60.200  60.140
   C    103.190  58.760  59.670
   C    103.150  61.210  58.980
   N    101.330  60.370  60.510
   H    100.580  60.170  59.740
   C    100.830  59.930  61.770
   C    100.540  58.430  61.940
   C    99.540  60.650  62.120
   C    101.830  60.330  62.940
   C    107.630  60.220  64.850
   C    108.260  61.200  63.800
   C    107.830  60.800  62.400
   C    107.860  62.710  63.820
   O    108.600  63.550  63.270
   O    106.590  63.010  64.190
   C    106.100  64.330  63.850
   C    104.570  64.190  63.600
   C    103.680  65.040  64.560
   C    103.500  64.330  65.930
   C    102.260  65.010  63.980
   N    104.220  66.470  64.830
   O    103.500  67.400  64.300
   C    105.670  66.640  64.720
   C    106.120  67.280  63.360
   C    106.070  67.610  65.870
   C    106.470  65.290  64.910
   C    109.840  61.070  63.810
   C    110.790  61.490  65.000
   C    112.100  61.950  64.300
   C    110.330  62.750  65.750
   O    110.570  63.870  65.390
   O    109.770  62.450  66.980
   C    110.040  63.450  68.020
   C    108.910  64.480  68.090
   C    109.300  65.580  69.100
   C    110.100  66.700  68.300
   C    107.960  66.220  69.640
   N    110.190  65.080  70.190
   H    110.360  65.820  70.960
   C    110.060  63.630  70.560
   C    108.700  63.360  71.320
   C    111.190  63.230  71.470
   C    110.080  62.710  69.330
   C    111.090  60.310  65.970
   C    112.120  59.130  65.700
   C    111.770  58.410  64.340
   C    112.140  58.140  66.910
   O    112.050  58.510  68.070
   O    112.480  56.950  66.520
   C    112.900  56.010  67.560
   C    112.380  54.550  67.180
   C    112.970  53.460  68.090
   C    112.740  52.130  67.310
   C    112.130  53.400  69.400
   N    114.410  53.640  68.520
   O    115.040  52.570  68.760
   C    115.140  54.720  67.630
   C    115.440  54.150  66.200
   C    116.530  55.010  68.270
   C    114.430  56.030  67.600
   C    113.580  59.640  65.690
   H    105.870  53.940  68.040
   H    105.660  54.030  69.820
   H    104.430  54.680  68.810
   H    108.080  54.890  67.820
   H    108.080  54.840  69.610
   H    108.420  56.300  68.850
   H    104.750  56.400  72.250
   H    105.610  58.760  72.040
   H    104.140  59.270  71.470
   H    105.500  57.170  74.330
   H    104.880  58.380  75.560
   H    106.120  58.730  74.380
   H    104.810  60.650  73.620
   H    103.590  60.470  74.840
   H    103.110  60.770  73.210
   H    100.100  56.980  73.750
   H    100.380  56.170  72.140
   H    101.380  55.700  73.510
   H    101.840  59.530  71.720
   H    100.620  59.330  72.950
   H    100.600  58.460  71.290
   H    102.420  57.390  70.640
   H    102.620  55.830  71.460
   H    105.730  55.870  66.870
   H    104.930  57.040  67.960
   H    107.860  59.520  67.570
   H    107.800  58.320  68.710
   H    106.250  59.100  68.550
   H    109.370  56.140  64.380
   H    110.100  54.090  64.880
   H    108.910  54.020  66.000
   H    109.970  51.700  64.400
   H    108.810  51.630  65.900
   H    108.440  50.770  64.440
   H    106.250  52.080  64.210
   H    106.260  53.760  64.500
   H    106.670  52.740  65.840
   H    109.980  55.850  61.460
   H    110.490  54.630  62.670
   H    110.310  54.120  61.040
   H    108.090  53.840  60.070
   H    106.570  54.360  61.030
   H    107.510  55.460  60.400
   H    106.800  55.290  63.050
   H    107.980  56.510  62.640
   H    104.790  58.400  66.070
   H    105.810  57.700  64.930
   H    106.020  61.180  66.960
   H    105.250  61.780  65.420
   H    104.460  60.550  66.260
   H    103.380  58.830  62.520
   H    104.680  60.430  61.130
   H    103.640  61.660  61.500
   H    102.490  58.540  58.860
   H    103.090  58.010  60.450
   H    104.230  58.700  59.350
   H    102.840  62.230  59.190
   H    104.210  61.220  58.730
   H    102.630  61.080  58.040
   H    100.160  58.150  62.920
   H    101.350  57.700  61.870
   H    99.840  58.120  61.170
   H    99.630  61.730  62.000
   H    98.740  60.390  61.440
   H    99.170  60.500  63.140
   H    101.530  59.910  63.900
   H    101.820  61.420  62.980
   H    108.110  59.290  64.570
   H    108.040  60.570  65.800
   H    108.020  59.770  62.110
   H    108.480  61.270  61.660
   H    106.810  60.990  62.050
   H    106.500  64.700  62.910
   H    104.220  63.160  63.660
   H    104.420  64.510  62.560
   H    103.120  63.310  65.840
   H    102.930  64.800  66.730
   H    104.430  64.350  66.480
   H    101.430  65.490  64.510
   H    102.190  65.370  62.960
   H    102.110  63.930  63.900
   H    107.190  67.460  63.240
   H    105.720  66.780  62.480
   H    105.740  68.300  63.300
   H    105.610  67.250  66.780
   H    107.160  67.680  65.950
   H    105.630  68.610  65.880
   H    106.340  65.010  65.960
   H    107.510  65.520  64.700
   H    110.100  60.090  63.410
   H    110.170  61.640  62.940
   H    112.540  61.180  63.650
   H    112.920  62.200  64.960
   H    111.990  62.830  63.670
   H    111.010  63.920  67.870
   H    108.040  63.870  68.340
   H    108.880  64.860  67.070
   H    109.480  67.090  67.490
   H    111.050  66.340  67.910
   H    110.420  67.600  68.820
   H    107.400  66.620  68.790
   H    108.160  67.040  70.330
   H    107.280  65.610  70.240
   H    108.460  63.960  72.200
   H    108.600  62.360  71.740
   H    107.820  63.520  70.700
   H    112.220  63.380  71.130
   H    111.060  62.180  71.730
   H    111.200  63.690  72.450
   H    109.320  61.930  69.340
   H    111.060  62.220  69.360
   H    111.480  60.770  66.880
   H    110.150  59.780  66.130
   H    111.940  59.060  63.480
   H    112.360  57.500  64.260
   H    110.720  58.160  64.400
   H    112.360  56.200  68.490
   H    112.550  54.480  66.110
   H    111.290  54.520  67.300
   H    113.350  52.210  66.410
   H    111.700  52.010  66.990
   H    112.830  51.290  67.990
   H    112.410  52.570  70.050
   H    112.230  54.340  69.950
   H    111.080  53.210  69.210
   H    115.990  54.900  65.640
   H    116.000  53.220  66.150
   H    114.520  54.120  65.620
   H    117.090  55.800  67.780
   H    117.230  54.170  68.300
   H    116.470  55.190  69.340
   H    114.700  56.720  66.800
   H    114.680  56.670  68.460
   H    113.830  60.350  66.480
   H    114.240  58.810  65.950
   H    113.810  60.170  64.770
  