239
PTMA_CHAIN8_frame2
 C    71.810  32.130  58.690
   C    70.330  32.040  58.300
   C    70.030  32.940  57.060
   C    69.540  32.620  59.500
   O    68.630  33.490  59.380
   O    69.950  32.080  60.700
   C    69.410  32.610  61.950
   C    68.310  31.690  62.610
   C    67.670  32.220  63.910
   C    66.560  33.200  63.530
   C    67.050  31.050  64.680
   N    68.730  32.930  64.820
   O    68.360  33.350  65.960
   C    70.060  33.500  64.270
   C    69.920  34.970  64.200
   C    71.150  33.360  65.270
   C    70.500  32.760  62.990
   C    70.140  30.410  58.240
   C    68.860  29.880  57.440
   C    67.550  30.560  57.890
   C    69.090  30.000  55.940
   O    68.150  29.720  55.170
   O    70.260  30.430  55.570
   C    70.670  30.270  54.270
   C    70.180  31.410  53.340
   C    70.780  31.240  51.890
   C    69.690  30.460  51.010
   C    70.850  32.610  51.200
   N    72.150  30.590  51.810
   O    72.630  30.450  50.660
   C    72.940  30.170  53.050
   C    73.240  28.710  52.820
   C    74.270  30.940  53.180
   C    72.160  30.430  54.350
   C    68.580  28.340  57.740
   C    69.270  27.080  57.100
   C    69.080  25.810  58.160
   C    70.810  27.300  56.800
   O    71.270  27.380  55.610
   O    71.550  27.350  57.880
   C    73.060  27.360  57.680
   C    73.700  26.040  58.150
   C    75.200  26.040  57.890
   C    75.400  25.680  56.410
   C    75.690  24.930  58.720
   N    75.970  27.300  58.260
   O    77.220  27.270  58.510
   C    75.220  28.580  58.330
   C    75.450  29.460  57.020
   C    75.710  29.210  59.610
   C    73.610  28.430  58.540
   C    68.360  26.580  55.880
   C    68.790  25.810  54.500
   C    69.140  26.850  53.430
   C    69.990  24.820  54.690
   O    70.050  24.130  55.690
   O    70.650  24.530  53.500
   C    71.500  23.430  53.430
   C    70.930  22.140  53.120
   C    71.970  21.000  52.810
   C    71.420  20.150  51.700
   C    72.170  20.210  54.230
   N    73.310  21.470  52.390
   O    74.140  20.580  52.190
   C    73.780  22.880  52.430
   C    74.740  23.100  53.640
   C    74.710  23.210  51.250
   C    72.610  23.870  52.510
   C    67.690  24.870  53.980
   C    66.480  25.280  53.180
   C    65.540  24.000  53.220
   C    65.660  26.460  53.730
   O    65.700  27.650  53.350
   O    65.070  26.120  54.860
   C    64.370  27.010  55.640
   C    62.880  26.840  55.250
   C    61.790  27.540  56.100
   C    61.390  28.900  55.420
   C    60.460  26.750  56.060
   N    62.170  27.630  57.570
   O    61.400  27.680  58.510
   C    63.620  27.520  57.970
   C    63.680  26.900  59.400
   C    64.210  28.990  58.080
   C    64.500  26.600  57.060
   C    66.810  25.550  51.650
   C    65.730  25.650  50.520
   C    64.400  26.450  50.860
   C    65.360  24.150  50.160
   O    66.140  23.350  49.880
   O    64.040  23.870  50.110
   C    63.620  22.490  50.070
   C    62.400  22.270  50.960
   C    61.750  20.880  50.870
   C    60.270  21.130  51.240
   C    62.540  20.030  51.830
   N    61.760  20.260  49.480
   O    61.060  19.260  49.200
   C    62.800  20.690  48.470
   C    62.110  20.600  47.110
   C    63.910  19.710  48.560
   C    63.300  22.110  48.660
   C    66.250  26.300  49.190
   H    72.410  31.810  57.840
   H    72.050  33.140  59.000
   H    72.080  31.440  59.500
   H    69.060  32.850  56.580
   H    70.760  32.850  56.250
   H    70.100  34.000  57.300
   H    68.960  33.580  61.740
   H    67.540  31.540  61.860
   H    68.820  30.770  62.890
   H    66.380  33.960  64.290
   H    65.630  32.640  63.380
   H    66.810  33.770  62.640
   H    66.920  31.280  65.740
   H    67.670  30.160  64.710
   H    66.110  30.680  64.290
   H    69.400  35.390  65.060
   H    70.870  35.460  63.990
   H    69.140  35.300  63.510
   H    71.200  32.300  65.550
   H    70.820  33.930  66.140
   H    72.100  33.590  64.790
   H    71.040  31.840  63.230
   H    71.330  33.340  62.570
   H    71.080  29.940  57.970
   H    70.120  30.060  59.280
   H    67.420  30.530  58.970
   H    66.620  30.100  57.550
   H    67.750  31.610  57.680
   H    70.350  29.280  53.950
   H    69.100  31.500  53.230
   H    70.530  32.390  53.670
   H    68.870  30.050  51.600
   H    69.300  31.080  50.210
   H    70.150  29.610  50.510
   H    71.180  32.400  50.190
   H    71.660  33.240  51.560
   H    69.910  33.170  51.170
   H    73.880  28.300  53.600
   H    72.260  28.230  52.720
   H    73.790  28.500  51.900
   H    73.960  31.980  53.250
   H    74.810  30.800  54.110
   H    74.920  30.750  52.320
   H    72.450  31.390  54.770
   H    72.480  29.600  54.990
   H    67.500  28.200  57.690
   H    68.800  28.300  58.810
   H    68.110  25.830  58.660
   H    69.270  24.810  57.780
   H    69.830  25.860  58.960
   H    73.300  27.560  56.640
   H    73.210  25.150  57.750
   H    73.450  25.910  59.200
   H    75.010  26.530  55.850
   H    74.990  24.710  56.130
   H    76.470  25.720  56.190
   H    76.760  24.770  58.620
   H    75.620  25.200  59.770
   H    75.320  23.950  58.410
   H    75.440  30.520  57.270
   H    74.610  29.460  56.320
   H    76.430  29.350  56.570
   H    76.650  29.750  59.590
   H    74.970  29.980  59.870
   H    75.660  28.530  60.450
   H    73.250  29.420  58.280
   H    73.430  28.280  59.610
   H    67.800  27.430  55.490
   H    67.570  25.990  56.360
   H    68.410  27.650  53.290
   H    69.040  26.220  52.540
   H    70.110  27.350  53.400
   H    72.010  23.300  54.390
   H    70.320  22.350  52.240
   H    70.180  21.920  53.880
   H    71.380  20.790  50.820
   H    70.440  19.740  51.970
   H    72.080  19.310  51.500
   H    71.840  19.190  54.030
   H    73.240  20.090  54.410
   H    71.670  20.620  55.110
   H    74.330  23.220  54.640
   H    75.450  22.310  53.880
   H    75.310  24.030  53.550
   H    75.180  24.200  51.250
   H    75.520  22.480  51.210
   H    74.240  23.090  50.270
   H    72.190  24.020  51.510
   H    73.050  24.810  52.860
   H    68.120  24.090  53.360
   H    67.400  24.260  54.840
   H    65.360  23.710  54.260
   H    66.060  23.190  52.710
   H    64.620  24.160  52.660
   H    64.640  28.030  55.360
   H    62.660  25.790  55.050
   H    62.890  27.270  54.240
   H    62.200  29.630  55.470
   H    60.630  29.320  56.090
   H    61.080  28.700  54.400
   H    60.090  26.530  55.060
   H    59.670  27.310  56.570
   H    60.530  25.800  56.590
   H    63.120  27.540  60.090
   H    64.690  26.830  59.810
   H    63.360  25.860  59.530
   H    65.030  28.970  57.370
   H    64.690  29.130  59.050
   H    63.660  29.890  57.830
   H    64.280  25.540  57.220
   H    65.540  26.650  57.380
   H    67.220  26.560  51.600
   H    67.550  24.870  51.220
   H    64.590  27.440  51.270
   H    63.810  26.590  49.960
   H    63.770  25.910  51.570
   H    64.450  21.850  50.380
   H    61.730  23.080  50.670
   H    62.720  22.590  51.950
   H    60.120  22.170  51.540
   H    60.070  20.660  52.200
   H    59.510  20.820  50.520
   H    63.570  19.740  51.660
   H    62.410  20.240  52.890
   H    61.990  19.080  51.820
   H    61.980  19.550  46.830
   H    61.190  21.180  47.170
   H    62.720  21.180  46.420
   H    63.580  18.670  48.610
   H    64.460  19.870  49.480
   H    64.590  19.840  47.720
   H    62.620  22.850  48.250
   H    64.200  22.280  48.080
   H    67.240  25.930  48.920
   H    65.580  26.240  48.330
   H    66.170  27.380  49.330
  