239
PTMA_CHAIN4_frame2
 C    91.240  79.960  17.760
   C    91.080  78.400  17.730
   C    89.700  78.230  18.380
   C    92.250  77.850  18.560
   O    92.010  77.180  19.550
   O    93.440  77.840  17.910
   C    94.660  77.490  18.530
   C    95.350  76.750  17.440
   C    96.850  76.320  17.690
   C    96.820  74.870  18.290
   C    97.560  76.140  16.280
   N    97.640  77.320  18.490
   O    98.820  77.080  18.670
   C    96.970  78.430  19.220
   C    97.110  78.140  20.740
   C    97.800  79.760  18.820
   C    95.520  78.720  18.770
   C    91.160  77.980  16.210
   C    90.720  76.540  15.750
   C    91.480  75.480  16.560
   C    89.230  76.250  15.910
   O    88.740  75.200  16.320
   O    88.470  77.430  15.630
   C    87.080  77.370  15.630
   C    86.460  77.790  16.940
   C    84.890  77.730  16.940
   C    84.440  76.280  17.390
   C    84.400  78.780  17.950
   N    84.200  78.140  15.620
   O    82.950  78.080  15.600
   C    85.030  78.200  14.310
   C    84.770  76.940  13.560
   C    84.590  79.360  13.500
   C    86.590  78.340  14.560
   C    91.170  76.440  14.210
   C    91.360  75.110  13.330
   C    92.690  74.350  13.840
   C    91.670  75.590  11.900
   O    90.870  75.430  10.970
   O    92.780  76.360  11.890
   C    93.260  76.810  10.620
   C    94.210  75.800  10.010
   C    94.930  76.290  8.720
   C    93.970  76.140  7.480
   C    96.150  75.280  8.390
   N    95.260  77.810  8.760
   O    96.090  78.250  7.940
   C    94.590  78.740  9.720
   C    93.490  79.520  8.880
   C    95.640  79.720  10.180
   C    94.010  78.030  10.920
   C    90.230  74.060  13.440
   C    88.820  74.110  12.670
   C    88.310  75.580  12.410
   C    88.950  73.360  11.320
   O    87.930  73.260  10.560
   O    90.030  72.650  11.080
   C    90.240  72.030  9.810
   C    91.730  72.140  9.400
   C    92.160  71.400  8.130
   C    93.740  71.350  8.140
   C    91.880  72.360  6.940
   N    91.520  70.020  7.980
   O    92.000  69.340  7.080
   C    90.220  69.640  8.720
   C    89.150  69.480  7.650
   C    90.310  68.220  9.450
   C    89.770  70.560  9.930
   C    87.650  73.400  13.480
   C    87.460  71.820  13.700
   C    86.880  71.040  12.520
   C    88.860  71.290  14.180
   O    89.650  70.680  13.410
   O    88.960  71.320  15.550
   C    90.000  70.550  16.140
   C    90.820  71.550  16.970
   C    92.030  71.070  17.730
   C    93.200  70.840  16.700
   C    92.580  72.060  18.710
   N    91.690  69.790  18.470
   O    92.270  69.510  19.530
   C    90.670  68.750  17.950
   C    89.930  68.030  19.190
   C    91.240  67.600  17.100
   C    89.490  69.480  17.160
   C    86.470  71.570  14.940
   C    84.890  71.740  14.940
   C    84.250  70.560  14.290
   C    84.400  73.080  14.270
   O    84.120  74.100  14.880
   O    83.990  72.920  13.020
   C    83.150  73.810  12.340
   C    83.510  73.560  10.890
   C    82.760  74.520  9.860
   C    82.910  73.820  8.490
   C    83.520  75.880  9.760
   N    81.260  74.710  10.280
   O    80.490  74.910  9.350
   C    80.750  74.570  11.700
   C    79.290  73.950  11.750
   C    80.710  75.990  12.300
   C    81.660  73.560  12.520
   C    84.420  71.730  16.470
   H    90.360  80.550  17.510
   H    91.690  80.390  18.660
   H    91.920  80.310  16.990
   H    89.020  78.930  17.890
   H    89.640  78.550  19.420
   H    89.340  77.200  18.350
   H    94.610  76.890  19.440
   H    94.810  75.860  17.120
   H    95.250  77.370  16.540
   H    97.820  74.460  18.460
   H    96.260  74.130  17.710
   H    96.280  74.890  19.240
   H    96.850  75.980  15.470
   H    98.400  75.450  16.280
   H    98.170  76.960  15.880
   H    98.040  78.600  21.080
   H    96.240  78.510  21.270
   H    97.240  77.110  21.050
   H    98.850  79.700  19.110
   H    97.380  80.650  19.290
   H    97.780  79.940  17.750
   H    95.560  79.300  17.850
   H    95.030  79.320  19.540
   H    90.590  78.740  15.670
   H    92.180  78.250  15.940
   H    91.250  74.470  16.220
   H    91.170  75.590  17.600
   H    92.560  75.630  16.460
   H    86.820  76.360  15.340
   H    86.770  77.200  17.800
   H    86.850  78.780  17.180
   H    83.350  76.170  17.360
   H    84.970  75.520  16.800
   H    84.590  76.040  18.440
   H    83.330  78.690  18.140
   H    84.540  79.810  17.610
   H    84.970  78.520  18.840
   H    85.420  76.150  13.920
   H    83.720  76.660  13.610
   H    85.080  77.000  12.520
   H    85.010  79.340  12.490
   H    83.500  79.290  13.480
   H    84.750  80.300  14.020
   H    86.780  79.390  14.780
   H    87.060  78.340  13.580
   H    92.050  77.080  14.050
   H    90.430  77.020  13.670
   H    92.640  73.680  14.700
   H    93.040  73.750  13.000
   H    93.540  75.010  14.000
   H    92.410  77.080  10.000
   H    93.690  74.850  9.930
   H    94.950  75.590  10.780
   H    93.130  76.820  7.360
   H    93.470  75.170  7.460
   H    94.630  76.090  6.610
   H    96.620  74.770  9.230
   H    95.880  74.450  7.750
   H    96.860  75.810  7.750
   H    93.530  80.610  8.900
   H    92.480  79.370  9.250
   H    93.460  79.170  7.850
   H    95.870  80.480  9.430
   H    95.160  80.310  10.960
   H    96.560  79.360  10.640
   H    93.220  78.600  11.410
   H    94.860  77.730  11.530
   H    89.900  73.910  14.470
   H    90.610  73.050  13.260
   H    88.610  75.910  11.420
   H    88.550  76.300  13.200
   H    87.250  75.660  12.180
   H    89.670  72.550  9.030
   H    92.240  71.640  10.230
   H    92.050  73.180  9.390
   H    94.120  70.730  7.330
   H    94.000  70.860  9.070
   H    94.180  72.350  8.100
   H    92.520  72.090  6.100
   H    90.840  72.200  6.630
   H    92.110  73.420  7.040
   H    89.420  68.710  6.930
   H    88.270  69.090  8.170
   H    89.060  70.480  7.250
   H    90.300  67.310  8.840
   H    91.180  68.100  10.100
   H    89.390  67.990  9.980
   H    90.050  70.030  10.840
   H    88.690  70.680  10.000
   H    87.520  73.860  14.460
   H    86.790  73.760  12.910
   H    86.550  70.050  12.830
   H    87.680  70.880  11.790
   H    86.040  71.460  11.960
   H    90.710  70.230  15.380
   H    90.150  71.960  17.720
   H    91.200  72.350  16.330
   H    92.670  70.560  15.790
   H    93.780  69.970  17.000
   H    93.950  71.610  16.510
   H    92.570  73.110  18.410
   H    93.610  71.940  19.040
   H    92.090  72.070  19.690
   H    89.500  68.750  19.880
   H    90.640  67.440  19.760
   H    89.220  67.420  18.620
   H    91.600  67.980  16.150
   H    90.450  66.960  16.710
   H    92.040  67.020  17.550
   H    88.770  69.970  17.810
   H    88.930  68.770  16.550
   H    86.580  70.570  15.370
   H    86.760  72.330  15.660
   H    84.480  70.500  13.230
   H    84.520  69.620  14.760
   H    83.170  70.660  14.290
   H    83.380  74.850  12.560
   H    83.220  72.540  10.650
   H    84.570  73.580  10.660
   H    82.340  72.900  8.370
   H    83.950  73.630  8.210
   H    82.500  74.570  7.820
   H    82.870  76.750  9.690
   H    84.150  76.070  10.630
   H    84.160  75.980  8.890
   H    78.560  74.680  11.420
   H    79.150  72.960  11.310
   H    79.000  73.800  12.790
   H    81.600  76.590  12.110
   H    80.450  75.960  13.350
   H    79.890  76.630  12.000
   H    81.470  72.490  12.420
   H    81.480  73.720  13.580
   H    84.610  72.720  16.890
   H    83.350  71.560  16.580
   H    84.920  70.950  17.030
  