239
PTMA_CHAIN4_time20
 C    99.140  65.210  17.980
   C    99.080  66.130  19.270
   C    99.170  67.610  18.820
   C    100.350  65.600  20.040
   O    100.310  64.630  20.790
   O    101.350  66.440  20.000
   C    102.540  66.090  20.630
   C    103.680  66.360  19.700
   C    104.930  65.810  20.300
   C    105.090  64.360  19.940
   C    106.050  66.650  19.650
   N    104.940  65.890  21.790
   H    105.680  65.330  22.360
   C    103.920  66.650  22.580
   C    103.680  65.720  23.840
   C    104.430  68.010  23.160
   C    102.630  66.950  21.870
   C    97.750  65.740  19.960
   C    97.320  66.530  21.270
   C    98.520  66.960  22.230
   C    96.560  67.860  20.980
   O    96.220  68.490  21.950
   O    96.400  68.240  19.760
   C    95.710  69.440  19.430
   C    96.620  70.560  18.900
   C    95.880  71.920  18.700
   C    95.840  72.740  20.010
   C    96.420  72.730  17.590
   N    94.490  71.710  18.350
   H    93.840  72.580  18.360
   C    93.980  70.480  17.670
   C    92.450  70.330  17.900
   C    94.190  70.630  16.130
   C    94.720  69.170  18.280
   C    96.420  65.680  22.180
   C    94.930  65.290  21.780
   C    94.690  64.060  22.650
   C    94.830  64.880  20.310
   O    94.490  65.760  19.500
   O    95.090  63.610  20.060
   C    94.860  62.960  18.820
   C    94.110  61.680  18.970
   C    93.820  60.980  17.650
   C    92.450  61.410  17.110
   C    93.760  59.400  17.740
   N    94.730  61.420  16.600
   H    94.400  61.210  15.580
   C    96.080  62.020  16.820
   C    96.220  63.130  15.740
   C    97.080  60.920  16.530
   C    96.250  62.590  18.220
   C    93.840  66.440  22.060
   C    92.250  66.140  22.170
   C    91.740  65.070  21.160
   C    92.120  65.690  23.690
   O    92.390  66.420  24.650
   O    91.170  64.800  23.860
   C    90.870  64.130  25.020
   C    89.500  63.520  24.930
   C    89.010  62.970  26.240
   C    87.590  62.420  26.030
   C    88.960  63.950  27.430
   N    89.950  61.890  26.650
   H    89.530  60.990  27.080
   C    91.440  62.050  26.470
   C    91.980  62.490  27.840
   C    91.960  60.640  26.230
   C    91.840  63.020  25.360
   C    91.640  67.470  21.870
   C    90.200  68.020  22.130
   C    90.170  69.370  21.320
   C    89.030  67.010  21.650
   O    88.480  66.210  22.400
   O    89.060  66.810  20.300
   C    88.370  65.710  19.650
   C    86.910  65.960  19.550
   C    86.290  64.830  18.780
   C    85.550  63.980  19.830
   C    85.130  65.300  17.840
   N    87.260  63.900  18.110
   H    86.870  62.930  17.800
   C    88.600  64.270  17.650
   C    88.540  64.260  16.100
   C    89.550  63.230  18.150
   C    88.840  65.680  18.200
   C    90.080  68.440  23.610
   C    88.900  69.290  24.140
   C    87.530  68.820  23.610
   C    89.160  70.780  23.990
   O    90.290  71.200  24.270
   O    88.190  71.490  23.500
   C    88.130  72.900  23.760
   C    88.250  73.430  22.310
   C    88.250  74.990  22.250
   C    87.990  75.500  20.830
   C    89.520  75.580  22.660
   N    87.130  75.550  23.080
   O    86.790  76.740  22.890
   C    86.700  74.880  24.360
   C    85.210  75.220  24.490
   C    87.470  75.310  25.660
   C    86.800  73.320  24.260
   C    88.880  69.050  25.640
   H    98.220  65.240  17.400
   H    99.840  65.530  17.200
   H    99.320  64.150  18.100
   H    98.360  67.780  18.120
   H    100.140  67.750  18.330
   H    99.090  68.300  19.650
   H    102.540  65.010  20.780
   H    103.440  65.980  18.710
   H    103.670  67.450  19.640
   H    105.210  64.240  18.860
   H    104.320  63.740  20.390
   H    105.960  63.880  20.370
   H    105.980  66.520  18.570
   H    107.040  66.350  20.000
   H    105.940  67.720  19.820
   H    102.780  66.030  24.370
   H    103.520  64.700  23.490
   H    104.530  65.630  24.510
   H    105.010  67.900  24.080
   H    103.640  68.610  23.610
   H    105.010  68.720  22.570
   H    102.510  67.960  21.470
   H    101.740  66.860  22.490
   H    97.000  65.790  19.170
   H    97.840  64.680  20.200
   H    99.240  66.190  22.510
   H    98.080  67.340  23.150
   H    99.110  67.710  21.690
   H    95.240  69.900  20.300
   H    97.260  70.840  19.740
   H    97.200  70.320  18.000
   H    95.210  73.600  19.850
   H    95.270  72.180  20.760
   H    96.770  73.000  20.530
   H    97.470  72.980  17.450
   H    95.960  73.720  17.610
   H    96.000  72.390  16.630
   H    92.090  69.400  17.440
   H    92.190  70.250  18.960
   H    91.780  71.030  17.420
   H    93.940  71.610  15.720
   H    95.260  70.550  15.940
   H    93.550  69.900  15.620
   H    95.220  68.640  17.470
   H    94.000  68.550  18.810
   H    96.260  66.150  23.150
   H    96.980  64.780  22.410
   H    94.610  64.450  23.660
   H    93.780  63.470  22.530
   H    95.430  63.300  22.410
   H    94.270  63.650  18.220
   H    93.190  61.880  19.520
   H    94.480  61.110  19.820
   H    92.220  60.830  16.220
   H    92.390  62.490  16.950
   H    91.700  61.230  17.880
   H    94.010  58.920  16.800
   H    94.560  59.110  18.420
   H    92.850  59.050  18.220
   H    96.400  62.650  14.780
   H    97.050  63.820  15.910
   H    95.250  63.600  15.600
   H    96.980  60.510  15.530
   H    98.110  61.270  16.530
   H    96.980  60.080  17.220
   H    96.880  63.480  18.320
   H    96.850  61.880  18.780
   H    94.110  67.260  21.400
   H    94.160  66.850  23.020
   H    90.730  64.730  21.380
   H    92.310  64.150  21.110
   H    91.730  65.480  20.150
   H    90.800  64.870  25.820
   H    89.660  62.730  24.210
   H    88.810  64.230  24.460
   H    87.450  61.520  25.420
   H    86.980  63.220  25.620
   H    87.170  62.220  27.020
   H    88.020  64.500  27.330
   H    88.870  63.340  28.330
   H    89.770  64.650  27.590
   H    91.790  61.700  28.570
   H    93.060  62.520  27.800
   H    91.670  63.460  28.220
   H    91.820  60.000  27.100
   H    91.550  60.150  25.350
   H    93.050  60.690  26.170
   H    91.920  62.420  24.450
   H    92.870  63.370  25.450
   H    92.340  68.190  22.300
   H    91.750  67.570  20.790
   H    91.050  69.910  21.670
   H    89.210  69.860  21.520
   H    90.220  69.120  20.260
   H    88.760  64.770  20.050
   H    86.830  66.950  19.120
   H    86.560  66.130  20.570
   H    84.900  64.610  20.430
   H    86.160  63.260  20.370
   H    84.740  63.400  19.390
   H    84.830  64.510  17.150
   H    85.410  66.150  17.220
   H    84.270  65.640  18.410
   H    87.600  64.680  15.750
   H    88.690  63.260  15.680
   H    89.350  64.890  15.730
   H    89.620  62.400  17.450
   H    89.230  62.760  19.070
   H    90.530  63.590  18.480
   H    88.430  66.480  17.580
   H    89.910  65.870  18.170
   H    90.110  67.540  24.220
   H    91.020  68.930  23.840
   H    87.370  68.930  22.540
   H    87.310  67.820  23.990
   H    86.740  69.420  24.080
   H    88.920  73.290  24.400
   H    87.330  73.120  21.810
   H    89.110  73.080  21.730
   H    88.570  74.900  20.130
   H    88.190  76.570  20.770
   H    86.980  75.360  20.470
   H    89.990  75.270  23.590
   H    90.350  75.330  21.990
   H    89.490  76.670  22.610
   H    84.820  74.700  25.370
   H    84.980  76.260  24.690
   H    84.640  74.880  23.630
   H    88.550  75.260  25.500
   H    87.200  74.780  26.580
   H    87.250  76.330  25.960
   H    85.980  72.950  23.640
   H    86.610  72.770  25.180
   H    88.020  69.590  26.050
   H    88.920  68.050  26.090
   H    89.790  69.530  25.990
  