239
PTMA_CHAIN4_frame7
 C    94.350  80.660  10.380
   C    93.520  79.370  10.660
   C    93.810  79.130  12.120
   C    94.170  78.230  9.880
   O    94.510  77.170  10.380
   O    94.350  78.440  8.550
   C    94.820  77.460  7.660
   C    93.600  76.990  6.810
   C    93.910  75.920  5.670
   C    93.960  74.570  6.400
   C    92.800  75.910  4.500
   N    95.330  75.980  5.160
   O    95.680  75.110  4.390
   C    96.310  77.110  5.550
   C    97.570  76.580  6.280
   C    96.740  77.880  4.240
   C    95.720  78.060  6.590
   C    92.030  79.670  10.350
   C    90.850  78.650  10.420
   C    90.960  77.620  9.270
   C    90.860  78.020  11.790
   O    91.430  76.940  11.950
   O    90.260  78.720  12.750
   C    90.600  78.390  14.100
   C    90.540  79.730  14.790
   C    91.110  79.440  16.210
   C    92.670  79.330  16.090
   C    90.810  80.720  17.050
   N    90.560  78.220  16.990
   O    90.770  78.180  18.250
   C    89.810  77.130  16.230
   C    90.650  75.790  16.350
   C    88.450  76.810  16.900
   C    89.510  77.500  14.730
   C    89.640  79.550  10.150
   C    88.130  79.110  9.990
   C    87.870  78.580  8.560
   C    87.370  80.450  10.300
   O    87.300  80.790  11.460
   O    86.900  81.180  9.190
   C    86.330  82.460  9.380
   C    84.830  82.410  9.300
   C    84.090  83.860  9.360
   C    84.010  84.330  10.830
   C    82.630  83.580  8.940
   N    84.850  84.960  8.620
   O    84.300  86.040  8.390
   C    86.320  84.860  8.350
   C    87.040  85.520  9.560
   C    86.600  85.550  7.020
   C    86.790  83.430  8.200
   C    87.670  78.090  11.120
   C    86.260  77.300  11.110
   C    85.170  78.380  10.950
   C    86.110  76.180  9.980
   O    85.210  76.260  9.110
   O    87.180  75.300  9.910
   C    87.270  74.390  8.840
   C    88.780  74.230  8.530
   C    89.230  73.240  7.440
   C    90.590  72.620  7.800
   C    89.320  74.010  6.140
   N    88.330  72.090  7.200
   O    88.770  71.210  6.410
   C    86.930  71.970  7.870
   C    85.720  72.170  6.840
   C    86.900  70.490  8.340
   C    86.710  72.950  9.060
   C    86.130  76.800  12.610
   C    85.230  75.610  13.130
   C    83.800  75.710  12.610
   C    85.830  74.230  12.690
   O    85.230  73.390  12.030
   O    87.070  74.110  13.130
   C    87.690  72.830  13.380
   C    89.110  72.880  12.800
   C    90.030  71.680  13.010
   C    89.810  70.640  11.840
   C    91.440  72.180  12.960
   N    89.770  71.050  14.410
   O    90.440  70.080  14.750
   C    88.550  71.320  15.270
   C    88.910  71.510  16.740
   C    87.530  70.210  15.230
   C    87.810  72.570  14.850
   C    85.180  75.800  14.700
   C    84.190  75.000  15.640
   C    83.900  73.540  15.180
   C    82.880  75.800  15.740
   O    82.870  77.040  15.760
   O    81.740  75.050  15.820
   C    80.460  75.640  15.750
   C    79.890  75.690  14.310
   C    78.460  76.260  14.280
   C    77.810  75.930  12.900
   C    78.550  77.830  14.200
   N    77.520  75.720  15.330
   O    76.360  76.080  15.280
   C    78.010  75.270  16.710
   C    77.150  74.100  17.190
   C    77.770  76.400  17.700
   C    79.460  74.820  16.660
   C    84.880  74.970  16.970
   H    94.180  81.330  11.220
   H    95.440  80.580  10.340
   H    93.870  81.060  9.490
   H    93.480  78.140  12.450
   H    93.250  79.820  12.750
   H    94.880  79.180  12.280
   H    95.290  76.590  8.110
   H    92.880  76.560  7.510
   H    93.190  77.910  6.420
   H    92.970  74.420  6.850
   H    94.610  74.560  7.270
   H    94.270  73.690  5.860
   H    93.130  76.370  3.560
   H    91.850  76.330  4.790
   H    92.620  74.860  4.260
   H    97.910  75.630  5.860
   H    98.410  77.250  6.110
   H    97.660  76.690  7.360
   H    97.750  78.290  4.360
   H    95.950  78.590  3.980
   H    96.700  77.190  3.400
   H    95.180  78.790  5.990
   H    96.500  78.530  7.190
   H    91.800  80.530  10.980
   H    92.030  80.010  9.320
   H    91.070  78.130  8.310
   H    90.030  77.040  9.270
   H    91.810  76.940  9.400
   H    91.560  77.890  14.220
   H    91.070  80.540  14.290
   H    89.540  80.150  14.870
   H    93.060  78.320  16.120
   H    92.900  79.840  15.150
   H    93.280  79.810  16.850
   H    89.760  81.020  17.130
   H    91.400  81.580  16.730
   H    91.190  80.650  18.070
   H    91.720  76.010  16.330
   H    90.400  75.180  17.210
   H    90.570  75.190  15.440
   H    88.620  76.480  17.930
   H    87.890  77.750  16.930
   H    87.860  76.000  16.490
   H    88.560  78.000  14.550
   H    89.430  76.650  14.070
   H    89.800  80.120  9.230
   H    89.720  80.310  10.930
   H    88.450  79.050  7.770
   H    88.220  77.560  8.400
   H    86.810  78.540  8.290
   H    86.430  82.750  10.430
   H    84.290  81.670  9.890
   H    84.730  81.920  8.340
   H    83.440  83.580  11.380
   H    83.400  85.230  10.860
   H    84.840  84.630  11.470
   H    82.050  84.500  8.970
   H    82.690  83.420  7.870
   H    82.190  82.750  9.490
   H    88.120  85.390  9.450
   H    86.790  85.100  10.530
   H    86.780  86.580  9.610
   H    86.420  86.620  7.050
   H    87.670  85.470  6.810
   H    86.160  85.190  6.090
   H    87.870  83.510  8.050
   H    86.300  83.060  7.300
   H    87.910  78.550  12.070
   H    88.420  77.300  11.090
   H    85.050  78.870  9.980
   H    85.320  79.170  11.690
   H    84.180  77.960  11.130
   H    86.780  74.860  7.990
   H    89.320  74.020  9.450
   H    89.100  75.270  8.390
   H    91.290  73.430  7.980
   H    90.920  71.890  7.050
   H    90.630  72.070  8.740
   H    88.440  74.650  6.060
   H    90.140  74.720  6.220
   H    89.410  73.420  5.220
   H    85.420  71.220  6.410
   H    84.810  72.650  7.230
   H    86.000  72.820  6.010
   H    87.050  69.770  7.530
   H    87.700  70.190  9.020
   H    85.990  70.340  8.920
   H    87.190  72.570  9.970
   H    85.650  73.050  9.290
   H    87.120  76.590  13.030
   H    85.960  77.640  13.270
   H    83.270  76.640  12.840
   H    83.150  74.960  13.080
   H    83.690  75.480  11.550
   H    87.130  72.030  12.890
   H    89.670  73.690  13.270
   H    89.100  73.210  11.760
   H    88.800  70.250  11.890
   H    90.560  69.860  11.970
   H    89.920  71.060  10.830
   H    91.760  72.510  11.970
   H    92.100  71.340  13.170
   H    91.570  73.010  13.650
   H    89.180  70.560  17.200
   H    88.210  72.090  17.350
   H    89.830  72.080  16.810
   H    87.060  70.030  14.260
   H    86.580  70.250  15.770
   H    88.050  69.380  15.700
   H    88.260  73.450  15.300
   H    86.830  72.600  15.330
   H    86.210  75.620  15.010
   H    85.020  76.860  14.900
   H    83.330  73.280  14.300
   H    84.830  73.020  14.930
   H    83.410  73.000  15.990
   H    80.540  76.600  16.260
   H    79.860  74.640  14.020
   H    80.610  76.190  13.660
   H    77.660  74.850  12.930
   H    78.540  76.100  12.110
   H    76.860  76.400  12.640
   H    77.550  78.190  13.990
   H    78.860  78.290  15.150
   H    79.290  78.140  13.460
   H    77.640  73.670  18.060
   H    76.110  74.340  17.450
   H    77.130  73.330  16.420
   H    78.080  77.310  17.190
   H    78.330  76.250  18.630
   H    76.760  76.660  18.000
   H    79.530  73.780  16.340
   H    79.730  74.890  17.710
   H    84.250  74.540  17.760
   H    85.800  74.390  16.950
   H    85.150  75.960  17.330
  