239
PTMA_CHAIN7_time20
 C    -0.200  5.520  9.740
   C    0.740  6.800  9.790
   C    2.080  6.440  9.030
   C    1.000  7.110  11.290
   O    2.100  7.340  11.690
   O    -0.120  6.860  12.050
   C    -0.060  7.030  13.460
   C    -0.220  8.420  14.090
   C    -0.060  8.460  15.600
   C    1.430  8.480  16.070
   C    -0.720  9.700  16.090
   N    -0.700  7.320  16.270
   H    -1.130  7.470  17.260
   C    -0.920  5.990  15.630
   C    0.280  5.080  15.890
   C    -2.160  5.370  16.270
   C    -1.080  6.170  14.130
   C    -0.150  7.910  9.080
   C    0.050  9.430  9.110
   C    -0.310  9.970  10.570
   C    1.590  9.750  8.810
   O    2.480  9.950  9.650
   O    1.820  9.600  7.500
   C    3.120  9.510  6.980
   C    3.060  8.580  5.760
   C    4.490  8.390  5.120
   C    5.090  7.090  5.630
   C    4.390  8.280  3.620
   N    5.450  9.490  5.500
   H    6.460  9.470  5.090
   C    5.140  10.740  6.240
   C    5.910  10.720  7.530
   C    5.550  11.940  5.360
   C    3.680  10.830  6.570
   C    -0.980  10.010  8.050
   C    -1.450  11.490  8.030
   C    -2.480  11.650  9.150
   C    -2.070  11.700  6.640
   O    -1.360  11.740  5.630
   O    -3.350  11.810  6.690
   C    -4.130  11.770  5.510
   C    -5.300  12.680  5.560
   C    -5.900  12.930  4.210
   C    -5.240  14.170  3.580
   C    -7.470  13.220  4.440
   N    -5.690  11.730  3.410
   H    -5.750  11.880  2.330
   C    -5.510  10.350  3.970
   C    -4.710  9.630  2.880
   C    -6.800  9.700  4.180
   C    -4.680  10.360  5.240
   C    -0.190  12.500  8.150
   C    -0.430  14.020  8.460
   C    -1.450  14.650  7.420
   C    -0.900  14.100  9.960
   O    -0.350  13.510  10.850
   O    -1.920  14.940  10.060
   C    -2.630  15.020  11.310
   C    -3.240  16.400  11.210
   C    -4.180  16.800  12.320
   C    -5.010  17.990  11.980
   C    -3.370  17.110  13.540
   N    -5.080  15.680  12.630
   H    -6.070  15.840  13.060
   C    -4.730  14.280  12.520
   C    -3.880  13.880  13.830
   C    -6.040  13.480  12.320
   C    -3.790  14.080  11.370
   C    1.010  14.720  8.200
   C    1.420  16.190  8.700
   C    2.620  16.440  7.690
   C    0.380  17.340  8.350
   O    -0.190  18.050  9.220
   O    0.030  17.350  7.070
   C    -0.850  18.360  6.510
   C    -0.080  19.300  5.670
   C    -0.970  20.360  5.050
   C    -0.710  21.760  5.590
   C    -0.710  20.350  3.530
   N    -2.470  20.130  5.100
   H    -3.170  20.950  5.230
   C    -3.000  18.730  5.180
   C    -3.480  18.400  3.740
   C    -4.200  18.770  6.170
   C    -1.990  17.760  5.750
   C    1.860  16.050  10.220
   C    2.190  17.280  11.150
   C    3.080  16.690  12.310
   C    0.970  17.930  11.860
   O    -0.030  17.230  12.000
   O    1.250  19.120  12.470
   C    0.730  19.540  13.720
   C    1.660  19.050  14.780
   C    1.140  19.470  16.160
   C    2.290  19.170  17.190
   C    -0.070  18.670  16.600
   N    0.730  20.940  16.250
   O    0.420  21.320  17.360
   C    0.390  21.730  15.000
   C    1.020  23.120  15.000
   C    -1.090  21.910  14.900
   C    0.810  21.020  13.680
   C    3.000  18.370  10.370
   H    0.130  4.800  10.500
   H    -1.220  5.730  10.060
   H    -0.170  5.020  8.770
   H    2.370  5.410  9.250
   H    2.950  7.030  9.310
   H    1.980  6.520  7.950
   H    0.950  6.790  13.790
   H    0.610  9.060  13.780
   H    -1.210  8.770  13.790
   H    1.420  8.480  17.160
   H    1.860  9.410  15.700
   H    2.110  7.670  15.790
   H    -0.390  9.840  17.120
   H    -1.810  9.650  15.980
   H    -0.330  10.580  15.570
   H    0.600  4.560  14.990
   H    1.120  5.720  16.170
   H    0.180  4.290  16.630
   H    -2.590  4.490  15.800
   H    -2.930  6.080  16.550
   H    -1.920  5.010  17.270
   H    -2.000  6.700  13.900
   H    -1.070  5.200  13.620
   H    -0.140  7.660  8.020
   H    -1.180  7.840  9.430
   H    -0.120  11.030  10.730
   H    0.300  9.510  11.350
   H    -1.270  9.660  10.980
   H    3.640  9.040  7.810
   H    2.640  7.600  6.000
   H    2.380  8.940  4.990
   H    4.400  6.310  5.290
   H    6.030  6.900  5.110
   H    5.310  7.170  6.690
   H    3.800  9.120  3.240
   H    3.870  7.340  3.440
   H    5.340  8.380  3.090
   H    6.950  10.920  7.250
   H    5.570  11.560  8.140
   H    5.860  9.860  8.190
   H    5.020  11.960  4.400
   H    5.470  12.930  5.790
   H    6.590  11.760  5.090
   H    3.230  11.320  5.700
   H    3.540  11.570  7.350
   H    -1.860  9.380  8.100
   H    -0.590  9.710  7.080
   H    -2.070  11.770  10.150
   H    -3.110  12.540  9.060
   H    -3.130  10.780  9.180
   H    -3.440  11.980  4.690
   H    -5.000  13.570  6.110
   H    -6.060  12.240  6.200
   H    -5.420  15.100  4.130
   H    -5.640  14.550  2.640
   H    -4.170  14.040  3.410
   H    -7.790  13.690  3.510
   H    -8.100  12.380  4.750
   H    -7.670  13.920  5.250
   H    -5.210  9.760  1.920
   H    -4.530  8.560  2.980
   H    -3.710  10.050  2.780
   H    -7.430  10.350  4.790
   H    -7.130  9.490  3.160
   H    -6.740  8.800  4.800
   H    -3.890  9.610  5.250
   H    -5.210  10.060  6.140
   H    0.530  12.250  7.360
   H    0.450  12.120  8.950
   H    -1.640  15.670  7.750
   H    -2.500  14.340  7.460
   H    -1.140  14.650  6.370
   H    -1.930  14.940  12.150
   H    -3.810  16.340  10.290
   H    -2.510  17.200  11.140
   H    -5.790  18.130  12.730
   H    -5.450  17.900  10.990
   H    -4.400  18.890  11.950
   H    -2.990  18.130  13.600
   H    -3.900  16.800  14.440
   H    -2.470  16.490  13.590
   H    -3.670  12.820  13.950
   H    -3.000  14.470  14.090
   H    -4.450  14.040  14.740
   H    -6.550  13.440  13.280
   H    -6.620  13.930  11.520
   H    -5.810  12.440  12.130
   H    -4.420  14.180  10.490
   H    -3.470  13.040  11.360
   H    1.780  14.100  8.670
   H    1.210  14.600  7.140
   H    3.080  17.430  7.720
   H    2.340  16.420  6.640
   H    3.390  15.690  7.820
   H    -1.250  18.980  7.320
   H    0.530  18.700  4.980
   H    0.640  19.810  6.310
   H    -1.420  22.510  5.240
   H    0.230  22.150  5.180
   H    -0.590  21.800  6.670
   H    0.150  20.960  3.240
   H    -1.560  20.820  3.040
   H    -0.520  19.350  3.150
   H    -4.130  19.200  3.390
   H    -4.170  17.560  3.640
   H    -2.630  18.310  3.060
   H    -3.950  19.110  7.180
   H    -4.520  17.730  6.240
   H    -4.930  19.510  5.840
   H    -1.590  17.330  4.840
   H    -2.480  16.860  6.130
   H    1.200  15.400  10.780
   H    2.800  15.510  10.110
   H    3.350  17.530  12.950
   H    2.470  16.040  12.940
   H    3.920  16.190  11.830
   H    -0.280  19.120  13.820
   H    2.660  19.450  14.610
   H    1.670  17.960  14.730
   H    1.910  19.260  18.200
   H    2.910  20.060  17.140
   H    2.910  18.280  17.040
   H    -0.930  18.930  15.980
   H    0.240  17.620  16.580
   H    -0.440  18.880  17.600
   H    2.100  23.040  15.130
   H    0.820  23.790  14.160
   H    0.700  23.710  15.850
   H    -1.580  21.870  15.870
   H    -1.540  21.080  14.350
   H    -1.330  22.890  14.490
   H    1.860  21.290  13.610
   H    0.440  21.540  12.800
   H    3.480  19.140  10.970
   H    3.850  17.980  9.820
   H    2.550  18.990  9.600
  