239
PTMA_CHAIN3_frame9
 C    81.210  48.960  60.090
   C    81.390  48.080  61.330
   C    82.010  46.780  60.790
   C    79.960  47.770  61.830
   O    79.390  46.680  61.710
   O    79.280  48.860  62.180
   C    77.940  48.830  62.420
   C    77.730  48.820  64.000
   C    76.210  48.720  64.420
   C    75.720  47.280  64.220
   C    76.080  49.050  65.920
   N    75.340  49.630  63.590
   O    74.180  49.870  63.890
   C    75.840  50.300  62.330
   C    75.060  49.740  61.170
   C    75.510  51.820  62.390
   C    77.420  50.180  62.060
   C    82.230  48.850  62.420
   C    82.740  48.250  63.770
   C    81.860  47.160  64.350
   C    84.140  47.530  63.610
   O    84.740  47.230  64.600
   O    84.770  47.630  62.350
   C    85.980  46.900  62.060
   C    85.690  45.370  61.930
   C    86.920  44.560  61.450
   C    87.730  43.960  62.630
   C    86.330  43.340  60.670
   N    87.880  45.270  60.520
   O    88.870  44.680  60.100
   C    87.870  46.760  60.280
   C    89.080  47.470  60.840
   C    87.890  47.080  58.800
   C    86.600  47.420  60.800
   C    82.770  49.310  64.920
   C    83.820  50.510  64.990
   C    83.330  51.340  66.220
   C    83.710  51.340  63.680
   O    84.490  51.220  62.750
   O    82.660  52.320  63.750
   C    82.330  53.170  62.710
   C    82.230  54.590  63.320
   C    81.810  55.680  62.300
   C    83.040  56.080  61.420
   C    81.560  56.870  63.260
   N    80.670  55.220  61.490
   O    79.720  56.000  61.210
   C    80.540  53.800  61.080
   C    81.190  53.500  59.740
   C    79.050  53.430  60.800
   C    81.020  52.700  62.150
   C    85.280  50.090  65.290
   C    86.430  51.080  65.700
   C    86.400  52.400  64.960
   C    86.440  51.340  67.160
   O    85.770  50.720  67.980
   O    87.340  52.310  67.500
   C    87.350  52.820  68.790
   C    88.710  53.490  68.980
   C    88.940  54.290  70.300
   C    90.130  55.130  70.130
   C    89.170  53.300  71.450
   N    87.740  55.150  70.710
   O    87.840  56.070  71.530
   C    86.330  54.840  70.220
   C    85.550  54.270  71.390
   C    85.580  56.160  69.830
   C    86.240  53.940  68.960
   C    87.880  50.380  65.250
   C    88.550  49.190  66.030
   C    89.450  48.610  64.820
   C    89.330  49.760  67.220
   O    88.800  49.940  68.300
   O    90.640  49.890  67.050
   C    91.590  50.350  68.050
   C    92.160  49.160  68.900
   C    93.450  49.560  69.780
   C    93.030  50.410  71.030
   C    94.140  48.240  70.240
   N    94.480  50.280  68.860
   O    95.590  49.840  68.760
   C    94.100  51.240  67.710
   C    95.030  51.090  66.510
   C    94.070  52.700  68.180
   C    92.720  50.760  67.160
   C    87.610  48.050  66.570
   C    88.210  46.660  67.170
   C    88.580  45.710  66.060
   C    87.160  45.980  68.020
   O    87.010  46.240  69.230
   O    86.410  45.080  67.340
   C    85.680  44.100  67.930
   C    84.290  43.950  67.240
   C    83.290  43.040  67.920
   C    82.040  42.810  67.070
   C    82.890  43.830  69.150
   N    83.920  41.670  68.320
   O    83.190  40.710  68.420
   C    85.390  41.650  68.500
   C    85.920  40.320  67.770
   C    85.820  41.410  69.950
   C    86.260  42.740  67.880
   C    89.520  46.700  68.040
   H    80.640  48.330  59.400
   H    80.600  49.820  60.360
   H    82.120  49.330  59.630
   H    82.250  45.940  61.440
   H    82.990  47.010  60.360
   H    81.380  46.350  60.010
   H    77.360  48.000  62.020
   H    78.250  47.940  64.380
   H    78.160  49.630  64.580
   H    76.200  46.480  64.780
   H    75.710  46.900  63.200
   H    74.660  47.330  64.460
   H    75.940  50.120  66.000
   H    77.060  48.920  66.390
   H    75.310  48.510  66.490
   H    75.100  48.650  61.150
   H    73.990  49.980  61.130
   H    75.490  50.110  60.250
   H    74.440  52.020  62.400
   H    75.760  52.360  61.480
   H    75.970  52.160  63.320
   H    78.080  50.890  62.570
   H    77.640  50.270  61.000
   H    83.160  49.150  61.950
   H    81.740  49.780  62.680
   H    82.240  46.730  65.270
   H    81.760  46.380  63.590
   H    80.930  47.620  64.690
   H    86.650  47.090  62.900
   H    85.340  44.940  62.870
   H    84.820  45.380  61.270
   H    87.180  43.380  63.370
   H    88.420  43.180  62.310
   H    88.270  44.740  63.160
   H    85.620  43.640  59.890
   H    85.770  42.650  61.300
   H    86.980  42.720  60.060
   H    90.060  47.110  60.510
   H    89.030  48.540  60.660
   H    89.080  47.430  61.930
   H    88.860  46.930  58.340
   H    87.190  46.450  58.240
   H    87.780  48.160  58.670
   H    85.800  47.130  60.120
   H    86.810  48.480  60.900
   H    83.000  48.780  65.850
   H    81.750  49.690  64.970
   H    83.440  50.710  67.110
   H    83.980  52.210  66.350
   H    82.280  51.580  66.080
   H    83.230  53.150  62.090
   H    83.240  54.780  63.690
   H    81.520  54.580  64.130
   H    82.950  56.900  60.710
   H    83.280  55.340  60.640
   H    83.840  56.160  62.160
   H    81.230  57.630  62.560
   H    80.730  56.880  63.960
   H    82.460  57.250  63.750
   H    82.240  53.780  59.610
   H    80.770  54.100  58.930
   H    81.170  52.430  59.560
   H    78.940  52.380  60.540
   H    78.370  53.730  61.590
   H    78.720  53.970  59.910
   H    81.110  51.750  61.620
   H    80.290  52.620  62.950
   H    85.700  49.510  64.470
   H    85.190  49.260  65.990
   H    87.300  53.000  65.070
   H    85.550  53.060  65.180
   H    86.540  52.270  63.880
   H    87.210  52.060  69.560
   H    88.840  54.130  68.110
   H    89.430  52.670  69.050
   H    91.080  54.590  70.200
   H    90.180  56.020  70.760
   H    90.290  55.520  69.130
   H    89.080  53.780  72.420
   H    88.490  52.450  71.450
   H    90.190  52.920  71.370
   H    86.040  53.400  71.830
   H    85.440  55.030  72.170
   H    84.600  53.870  71.060
   H    86.100  56.590  68.970
   H    84.530  56.010  69.560
   H    85.710  56.970  70.550
   H    86.260  54.570  68.070
   H    85.220  53.560  68.940
   H    87.720  50.020  64.230
   H    88.580  51.210  65.150
   H    88.920  47.960  64.130
   H    90.320  48.050  65.160
   H    89.960  49.420  64.310
   H    91.310  51.210  68.640
   H    92.510  48.470  68.140
   H    91.430  48.700  69.580
   H    92.150  49.960  71.480
   H    92.740  51.450  70.870
   H    93.940  50.500  71.630
   H    94.690  47.770  69.430
   H    93.470  47.470  70.630
   H    94.950  48.460  70.930
   H    96.040  51.360  66.830
   H    94.860  51.680  65.610
   H    95.100  50.060  66.170
   H    93.830  53.440  67.420
   H    95.020  52.960  68.660
   H    93.400  52.820  69.030
   H    92.980  49.930  66.510
   H    92.360  51.630  66.610
   H    86.910  48.300  67.370
   H    86.870  47.670  65.870
   H    88.860  44.670  66.240
   H    87.800  45.580  65.310
   H    89.400  46.150  65.490
   H    85.620  44.320  69.000
   H    84.460  43.590  66.220
   H    83.890  44.940  67.040
   H    82.190  42.460  66.050
   H    81.560  43.790  67.000
   H    81.260  42.200  67.540
   H    82.040  43.430  69.700
   H    83.670  43.970  69.890
   H    82.460  44.780  68.840
   H    85.750  39.490  68.450
   H    85.510  40.220  66.770
   H    87.010  40.330  67.690
   H    85.890  42.350  70.490
   H    86.700  40.800  70.160
   H    85.110  40.840  70.560
   H    86.710  42.530  66.910
   H    87.150  42.790  68.510
   H    89.610  45.700  68.460
   H    90.420  46.920  67.470
   H    89.460  47.470  68.800
  