239
PTMA_CHAIN3_frame8
 C    81.810  46.700  62.300
   C    82.650  46.320  63.580
   C    83.170  44.940  63.150
   C    81.680  46.280  64.820
   O    81.550  45.190  65.430
   O    80.940  47.320  64.950
   C    79.940  47.320  65.930
   C    80.310  48.280  67.070
   C    79.120  48.430  68.090
   C    79.060  47.270  69.090
   C    79.540  49.590  68.990
   N    77.710  48.620  67.490
   O    76.820  49.170  68.150
   C    77.420  48.020  66.080
   C    76.870  46.560  66.310
   C    76.380  48.800  65.240
   C    78.690  47.990  65.230
   C    83.700  47.510  63.660
   C    84.920  47.510  64.670
   C    84.510  46.790  65.970
   C    86.210  46.850  64.130
   O    87.180  46.780  64.930
   O    86.060  46.090  63.050
   C    87.060  45.270  62.550
   C    86.370  44.090  61.800
   C    87.450  43.070  61.390
   C    87.770  42.160  62.560
   C    86.900  42.050  60.260
   N    88.760  43.630  60.830
   O    89.590  42.910  60.350
   C    89.140  45.110  61.030
   C    90.340  45.190  62.020
   C    89.620  45.700  59.680
   C    87.910  45.960  61.480
   C    85.060  48.920  65.340
   C    85.760  50.210  64.600
   C    85.310  51.360  65.610
   C    85.160  50.390  63.200
   O    85.660  49.900  62.230
   O    84.130  51.280  63.190
   C    83.170  51.130  62.110
   C    83.570  51.820  60.810
   C    82.550  51.660  59.680
   C    82.510  50.220  59.160
   C    82.960  52.570  58.540
   N    81.170  52.090  60.150
   O    80.420  52.770  59.410
   C    80.660  51.780  61.510
   C    80.090  50.360  61.510
   C    79.560  52.740  61.890
   C    81.800  51.810  62.600
   C    87.300  49.980  64.590
   C    88.390  51.180  64.440
   C    87.950  52.120  63.280
   C    88.560  52.000  65.740
   O    88.180  51.570  66.820
   O    89.120  53.250  65.650
   C    89.030  54.050  66.760
   C    90.090  55.200  66.380
   C    90.210  56.380  67.350
   C    90.580  57.650  66.540
   C    91.330  56.190  68.440
   N    88.860  56.670  68.070
   O    88.840  57.660  68.870
   C    87.640  55.780  68.010
   C    87.480  55.130  69.350
   C    86.420  56.590  67.690
   C    87.680  54.720  66.920
   C    89.710  50.570  63.850
   C    90.870  49.940  64.720
   C    91.900  49.450  63.790
   C    91.510  51.010  65.710
   O    91.240  51.030  66.910
   O    92.480  51.750  65.120
   C    93.260  52.620  65.890
   C    94.390  51.860  66.620
   C    95.210  52.770  67.530
   C    94.380  53.270  68.790
   C    96.330  51.920  68.170
   N    95.740  53.990  66.870
   O    96.630  54.600  67.340
   C    95.140  54.510  65.610
   C    96.310  54.750  64.540
   C    94.650  55.970  65.900
   C    93.930  53.630  64.980
   C    90.140  48.740  65.470
   C    90.900  47.560  66.200
   C    91.630  46.510  65.320
   C    89.870  46.900  67.140
   O    89.300  47.580  68.040
   O    89.640  45.610  66.910
   C    88.720  44.890  67.710
   C    87.960  43.990  66.730
   C    87.090  42.980  67.460
   C    86.840  41.700  66.620
   C    85.760  43.650  67.680
   N    87.580  42.430  68.800
   O    87.070  41.460  69.340
   C    88.500  43.220  69.740
   C    89.400  42.290  70.600
   C    87.650  44.140  70.640
   C    89.430  44.110  68.890
   C    92.010  48.120  67.120
   H    81.010  45.980  62.160
   H    81.270  47.640  62.380
   H    82.370  46.730  61.370
   H    83.730  44.520  63.990
   H    83.590  44.970  62.150
   H    82.330  44.250  63.150
   H    79.600  46.350  66.300
   H    81.170  47.940  67.640
   H    80.670  49.220  66.630
   H    78.160  47.360  69.680
   H    79.900  47.210  69.780
   H    78.980  46.370  68.480
   H    80.590  49.680  69.250
   H    78.840  49.610  69.820
   H    79.310  50.520  68.460
   H    77.650  45.930  66.740
   H    75.990  46.570  66.950
   H    76.530  46.070  65.390
   H    76.250  48.440  64.210
   H    76.650  49.850  65.190
   H    75.400  48.680  65.700
   H    78.970  48.930  64.740
   H    78.580  47.370  64.340
   H    84.120  47.910  62.730
   H    83.130  48.370  64.020
   H    85.330  46.610  66.670
   H    84.220  45.750  65.830
   H    83.790  47.330  66.580
   H    87.620  44.940  63.430
   H    85.600  43.680  62.450
   H    85.780  44.470  60.970
   H    86.880  41.590  62.830
   H    88.480  41.370  62.270
   H    88.190  42.730  63.380
   H    86.820  42.610  59.330
   H    85.910  41.600  60.360
   H    87.590  41.230  60.080
   H    91.330  44.800  61.760
   H    90.500  46.230  62.280
   H    90.120  44.690  62.960
   H    89.860  46.750  59.850
   H    90.530  45.190  59.380
   H    88.900  45.660  58.870
   H    87.360  46.320  60.610
   H    88.270  46.880  61.930
   H    85.530  48.860  66.320
   H    84.040  49.200  65.580
   H    85.680  51.160  66.610
   H    85.700  52.340  65.300
   H    84.230  51.510  65.610
   H    83.070  50.050  61.980
   H    84.560  51.420  60.580
   H    83.790  52.860  61.040
   H    81.640  50.220  58.510
   H    82.460  49.330  59.780
   H    83.310  50.030  58.440
   H    82.320  52.440  57.660
   H    82.950  53.580  58.960
   H    83.960  52.410  58.150
   H    80.760  49.830  60.840
   H    79.110  50.220  61.050
   H    79.990  49.920  62.500
   H    79.770  53.760  61.600
   H    78.630  52.400  61.440
   H    79.370  52.650  62.960
   H    81.590  51.360  63.570
   H    82.050  52.820  62.950
   H    87.530  49.310  63.760
   H    87.510  49.380  65.470
   H    86.950  52.470  63.510
   H    88.060  51.670  62.290
   H    88.690  52.910  63.190
   H    89.390  53.550  67.660
   H    89.870  55.460  65.340
   H    91.000  54.610  66.230
   H    90.890  58.420  67.240
   H    89.710  58.020  66.000
   H    91.310  57.420  65.760
   H    90.980  55.570  69.270
   H    92.250  55.830  67.970
   H    91.590  57.190  68.780
   H    86.530  54.590  69.410
   H    88.320  54.530  69.710
   H    87.310  55.910  70.090
   H    86.470  57.160  66.770
   H    85.590  55.880  67.730
   H    86.270  57.320  68.490
   H    87.370  55.180  65.990
   H    86.910  53.950  66.990
   H    89.490  49.850  63.070
   H    90.200  51.320  63.230
   H    91.580  48.820  62.960
   H    92.670  48.920  64.360
   H    92.370  50.280  63.270
   H    92.640  53.100  66.640
   H    95.120  51.430  65.930
   H    93.930  51.090  67.230
   H    93.770  54.140  68.540
   H    95.090  53.520  69.580
   H    93.770  52.450  69.190
   H    97.090  52.460  68.740
   H    96.950  51.390  67.440
   H    95.970  51.120  68.820
   H    96.260  53.910  63.840
   H    97.280  54.750  65.020
   H    96.110  55.650  63.960
   H    94.280  56.490  65.010
   H    95.280  56.560  66.560
   H    93.710  55.920  66.450
   H    94.320  53.030  64.150
   H    93.220  54.280  64.470
   H    89.480  49.220  66.190
   H    89.520  48.200  64.760
   H    90.910  46.000  64.690
   H    92.320  46.930  64.590
   H    92.080  45.810  66.030
   H    88.020  45.640  68.090
   H    88.710  43.450  66.150
   H    87.380  44.560  66.010
   H    87.730  41.100  66.470
   H    86.430  42.010  65.660
   H    86.050  41.060  67.020
   H    85.190  43.580  66.750
   H    85.200  43.330  68.560
   H    85.750  44.730  67.830
   H    90.160  41.750  70.020
   H    89.920  42.930  71.310
   H    88.790  41.560  71.130
   H    86.800  43.650  71.120
   H    87.140  44.940  70.100
   H    88.260  44.580  71.420
   H    90.130  43.490  68.330
   H    90.140  44.710  69.450
   H    92.530  47.300  67.620
   H    92.710  48.770  66.590
   H    91.600  48.840  67.840
  