239
PTMA_CHAIN2_time0point005
 C    90.860  17.420  87.790
   C    89.630  18.350  87.940
   C    90.110  19.510  88.800
   C    88.590  17.520  88.640
   O    88.230  17.740  89.790
   O    88.180  16.470  87.910
   C    87.540  15.370  88.630
   C    86.050  15.620  88.840
   C    85.460  14.490  89.690
   C    85.640  14.750  91.130
   C    83.900  14.420  89.330
   N    86.150  13.140  89.410
   H    85.730  12.260  89.890
   C    86.770  12.910  88.070
   C    87.590  11.650  88.060
   C    85.710  12.870  86.940
   C    87.750  14.080  87.810
   C    89.190  18.740  86.440
   C    88.370  20.020  86.150
   C    87.050  20.020  86.980
   C    89.220  21.330  86.440
   O    88.820  22.230  87.100
   O    90.440  21.250  85.820
   C    91.310  22.330  85.760
   C    92.460  22.290  86.770
   C    93.760  21.830  86.120
   C    94.830  21.870  87.250
   C    93.670  20.370  85.650
   N    94.150  22.670  84.880
   H    95.110  23.190  84.810
   C    93.060  23.320  84.170
   C    92.800  24.820  84.640
   C    93.390  23.420  82.660
   C    91.750  22.560  84.330
   C    88.080  20.030  84.620
   C    86.920  20.820  83.860
   C    85.650  19.980  83.950
   C    87.520  20.920  82.410
   O    88.500  21.610  82.130
   O    86.940  20.030  81.580
   C    87.590  19.810  80.320
   C    87.370  20.990  79.300
   C    88.090  20.790  77.980
   C    89.590  21.110  78.170
   C    87.580  21.890  77.010
   N    87.850  19.460  77.390
   H    88.320  19.230  76.430
   C    87.850  18.270  78.310
   C    89.290  17.700  78.540
   C    87.000  17.150  77.610
   C    87.130  18.530  79.630
   C    86.640  22.330  84.420
   C    86.060  23.520  83.630
   C    86.880  23.890  82.390
   C    84.650  23.490  83.090
   O    84.020  24.550  82.880
   O    84.250  22.310  82.640
   C    83.130  22.290  81.730
   C    83.240  21.150  80.700
   C    82.150  20.030  80.740
   C    82.400  19.060  81.900
   C    82.330  19.180  79.480
   N    80.770  20.600  80.930
   H    80.170  20.380  80.050
   C    80.590  21.900  81.590
   C    80.380  23.080  80.630
   C    79.330  21.750  82.490
   C    81.800  22.220  82.540
   C    86.200  24.830  84.590
   C    85.490  25.060  85.950
   C    85.200  26.580  86.030
   C    84.030  24.520  86.060
   O    83.070  25.060  85.530
   O    83.990  23.380  86.730
   C    82.720  23.140  87.440
   C    81.630  22.390  86.650
   C    80.280  22.370  87.330
   C    79.480  23.630  86.900
   C    79.530  21.100  86.850
   N    80.470  22.490  88.850
   H    79.540  22.450  89.420
   C    81.720  21.880  89.480
   C    81.730  20.350  89.380
   C    81.810  22.220  90.960
   C    83.030  22.450  88.730
   C    86.320  24.560  87.240
   C    87.500  25.370  87.840
   C    88.620  25.720  86.870
   C    88.020  24.580  89.090
   O    87.350  23.940  89.800
   O    89.380  24.820  89.290
   C    89.980  24.440  90.570
   C    91.410  23.970  90.330
   C    92.150  23.790  91.650
   C    93.690  23.790  91.250
   C    91.860  22.470  92.260
   N    91.900  24.840  92.670
   O    92.880  25.070  93.570
   C    91.200  26.080  92.220
   C    92.120  27.000  91.350
   C    90.730  26.920  93.430
   C    89.930  25.680  91.450
   C    87.050  26.670  88.540
   H    91.690  17.980  87.360
   H    91.220  16.880  88.660
   H    90.810  16.460  87.280
   H    91.010  19.980  88.410
   H    90.400  19.310  89.830
   H    89.290  20.220  88.960
   H    87.980  15.160  89.610
   H    86.000  16.520  89.460
   H    85.610  15.800  87.860
   H    86.670  14.850  91.450
   H    85.130  13.950  91.660
   H    85.030  15.620  91.390
   H    83.350  15.340  89.510
   H    83.380  13.650  89.900
   H    83.620  14.080  88.330
   H    86.910  10.810  88.150
   H    88.260  11.510  87.210
   H    88.300  11.610  88.890
   H    85.150  13.780  86.720
   H    85.040  12.010  87.020
   H    86.150  12.730  85.960
   H    87.610  14.440  86.790
   H    88.780  13.730  87.660
   H    90.110  18.940  85.880
   H    88.590  17.980  85.950
   H    86.340  20.820  86.760
   H    87.210  20.100  88.060
   H    86.450  19.120  86.830
   H    90.660  23.190  85.970
   H    92.580  23.250  87.260
   H    92.150  21.620  87.570
   H    94.880  22.930  87.530
   H    94.680  21.340  88.190
   H    95.760  21.420  86.900
   H    94.650  19.960  85.420
   H    92.950  19.890  84.980
   H    93.590  19.800  86.580
   H    91.900  25.210  84.180
   H    92.640  25.060  85.700
   H    93.690  25.400  84.420
   H    94.250  24.070  82.520
   H    93.650  22.430  82.280
   H    92.530  23.840  82.140
   H    91.870  21.600  83.820
   H    91.030  23.140  83.760
   H    88.000  19.000  84.260
   H    89.020  20.300  84.130
   H    85.150  20.120  84.910
   H    84.910  20.110  83.170
   H    86.080  18.980  83.820
   H    88.640  19.660  80.580
   H    87.580  21.910  79.840
   H    86.320  21.090  79.040
   H    90.150  20.960  77.250
   H    90.070  20.440  78.880
   H    89.730  22.080  78.640
   H    86.500  21.750  76.980
   H    87.730  22.860  77.500
   H    88.000  21.870  76.010
   H    89.330  16.880  79.270
   H    90.040  18.320  79.020
   H    89.720  17.270  77.640
   H    85.950  17.430  77.490
   H    87.520  16.720  76.760
   H    86.780  16.370  78.350
   H    87.350  17.730  80.330
   H    86.050  18.630  79.510
   H    87.530  22.720  84.910
   H    85.940  22.170  85.240
   H    87.960  23.940  82.530
   H    86.620  24.860  81.970
   H    86.710  23.290  81.500
   H    82.980  23.240  81.240
   H    84.260  20.780  80.770
   H    83.170  21.640  79.730
   H    83.420  18.660  81.900
   H    81.630  18.290  81.940
   H    82.190  19.480  82.890
   H    81.690  18.300  79.430
   H    82.170  19.850  78.640
   H    83.300  18.690  79.440
   H    80.490  24.010  81.180
   H    81.200  23.100  79.910
   H    79.440  22.990  80.090
   H    79.540  20.910  83.150
   H    79.170  22.620  83.130
   H    78.350  21.660  82.030
   H    81.850  21.430  83.280
   H    81.580  23.220  82.930
   H    87.260  25.030  84.720
   H    85.890  25.570  83.850
   H    86.080  27.190  85.810
   H    84.780  27.060  86.920
   H    84.530  26.920  85.240
   H    82.190  24.050  87.720
   H    81.930  21.350  86.500
   H    81.790  22.760  85.640
   H    79.470  23.630  85.810
   H    80.030  24.550  87.090
   H    78.460  23.780  87.250
   H    79.580  21.190  85.760
   H    78.560  21.130  87.340
   H    80.050  20.150  86.960
   H    81.030  19.810  90.010
   H    82.680  20.020  89.790
   H    81.720  19.990  88.350
   H    81.890  23.300  91.080
   H    82.780  21.920  91.370
   H    80.970  21.950  91.590
   H    83.760  21.650  88.590
   H    83.370  23.230  89.410
   H    85.630  24.500  88.090
   H    86.620  23.540  87.000
   H    88.220  26.340  86.080
   H    89.500  26.170  87.330
   H    88.870  24.770  86.390
   H    89.440  23.610  91.010
   H    91.950  24.720  89.740
   H    91.190  23.110  89.690
   H    93.950  24.760  90.830
   H    93.840  23.020  90.490
   H    94.470  23.460  91.940
   H    92.490  22.360  93.150
   H    90.800  22.470  92.530
   H    91.850  21.540  91.690
   H    91.520  27.860  91.060
   H    93.010  27.300  91.900
   H    92.400  26.590  90.380
   H    90.160  27.760  93.050
   H    91.640  27.130  93.980
   H    90.090  26.430  94.160
   H    89.650  26.560  90.880
   H    89.090  25.460  92.110
   H    86.120  26.550  89.090
   H    87.640  27.110  89.340
   H    86.950  27.470  87.800
  