239
PTMA_CHAIN3_frame4
 C    79.120  45.560  59.440
   C    80.260  45.710  60.460
   C    81.310  44.690  60.080
   C    79.690  45.440  61.870
   O    79.940  44.360  62.520
   O    78.730  46.330  62.210
   C    77.930  46.070  63.320
   C    78.160  47.260  64.290
   C    77.150  47.310  65.510
   C    77.750  46.350  66.630
   C    77.230  48.810  66.170
   N    75.750  46.910  65.190
   O    74.820  47.200  65.940
   C    75.470  46.000  63.940
   C    75.320  44.510  64.460
   C    74.060  46.290  63.300
   C    76.480  46.080  62.870
   C    80.790  47.200  60.350
   C    82.080  47.690  61.060
   C    82.120  47.240  62.530
   C    83.320  47.220  60.340
   O    84.370  47.130  61.030
   O    83.290  47.090  58.920
   C    84.430  46.710  58.340
   C    84.250  45.090  58.130
   C    85.450  44.440  57.350
   C    86.780  44.370  58.230
   C    84.960  43.020  56.940
   N    85.740  45.200  56.120
   O    86.470  44.620  55.340
   C    85.640  46.740  56.090
   C    86.970  47.380  56.580
   C    85.420  47.280  54.620
   C    84.480  47.260  56.950
   C    82.080  49.260  61.220
   C    82.570  50.290  60.140
   C    82.110  51.670  60.670
   C    81.790  49.940  58.810
   O    82.360  49.570  57.770
   O    80.460  50.130  58.930
   C    79.610  49.900  57.830
   C    79.380  51.200  57.020
   C    78.260  51.210  56.000
   C    78.790  50.500  54.700
   C    77.990  52.720  55.520
   N    77.060  50.510  56.520
   O    76.040  50.760  55.910
   C    77.110  49.310  57.420
   C    77.170  47.990  56.590
   C    75.800  49.210  58.210
   C    78.280  49.420  58.430
   C    84.180  50.350  60.140
   C    84.990  51.490  59.540
   C    84.320  51.910  58.150
   C    84.930  52.750  60.460
   O    85.060  52.650  61.690
   O    84.640  53.930  59.850
   C    84.370  55.140  60.580
   C    85.340  56.330  60.250
   C    84.960  57.740  60.690
   C    85.680  58.770  59.740
   C    85.490  58.020  62.110
   N    83.540  58.050  60.740
   O    83.180  59.220  60.700
   C    82.530  56.910  60.840
   C    82.180  56.570  62.330
   C    81.170  57.350  60.270
   C    82.960  55.630  60.120
   C    86.410  51.010  59.040
   C    87.630  50.770  60.050
   C    88.840  50.580  59.000
   C    87.990  52.060  60.950
   O    88.270  53.130  60.340
   O    88.110  51.920  62.200
   C    88.520  52.960  63.040
   C    87.520  52.970  64.220
   C    87.800  53.990  65.360
   C    86.970  55.240  64.990
   C    87.420  53.440  66.740
   N    89.290  54.330  65.480
   O    89.620  55.060  66.440
   C    90.360  53.990  64.370
   C    91.650  53.520  65.140
   C    90.640  55.160  63.460
   C    89.910  52.790  63.570
   C    87.230  49.450  60.870
   C    88.220  48.490  61.630
   C    88.930  47.630  60.580
   C    87.470  47.680  62.670
   O    87.220  48.050  63.810
   O    87.140  46.490  62.180
   C    86.700  45.440  63.070
   C    85.650  44.650  62.250
   C    85.260  43.280  62.770
   C    85.150  42.370  61.560
   C    83.850  43.450  63.440
   N    86.160  42.700  63.770
   O    85.740  41.730  64.390
   C    87.470  43.330  64.150
   C    88.510  42.200  64.230
   C    87.310  43.920  65.620
   C    87.930  44.480  63.220
   C    89.320  49.260  62.400
   H    79.580  45.810  58.490
   H    78.760  44.540  59.540
   H    78.340  46.320  59.500
   H    81.820  44.800  59.120
   H    80.930  43.670  60.070
   H    82.060  44.620  60.860
   H    78.150  45.150  63.870
   H    79.170  47.320  64.670
   H    77.970  48.210  63.800
   H    78.790  46.520  66.890
   H    77.740  45.310  66.310
   H    77.150  46.510  67.520
   H    78.180  49.290  65.950
   H    77.090  49.000  67.240
   H    76.490  49.370  65.600
   H    74.870  43.920  63.650
   H    76.250  44.050  64.790
   H    74.620  44.420  65.280
   H    73.250  46.080  64.000
   H    73.810  45.630  62.470
   H    73.890  47.330  63.010
   H    76.300  46.950  62.240
   H    76.310  45.280  62.150
   H    80.720  47.480  59.300
   H    79.980  47.790  60.780
   H    81.320  47.690  63.130
   H    83.080  47.460  63.020
   H    82.190  46.150  62.570
   H    85.310  47.040  58.890
   H    84.020  44.540  59.040
   H    83.370  45.070  57.490
   H    86.780  43.500  58.900
   H    87.720  44.340  57.680
   H    86.870  45.190  58.940
   H    84.650  43.030  55.900
   H    84.060  42.630  57.430
   H    85.770  42.300  56.880
   H    86.980  48.440  56.350
   H    87.280  47.190  57.610
   H    87.830  46.910  56.110
   H    86.170  46.970  53.900
   H    84.510  46.880  54.170
   H    85.360  48.360  54.460
   H    83.450  47.150  56.600
   H    84.680  48.320  57.100
   H    82.700  49.560  62.070
   H    81.100  49.660  61.510
   H    82.460  51.770  61.700
   H    82.410  52.530  60.060
   H    81.030  51.690  60.750
   H    79.980  49.120  57.170
   H    80.380  51.380  56.640
   H    79.220  52.020  57.730
   H    79.640  50.980  54.230
   H    77.980  50.350  53.980
   H    79.110  49.460  54.820
   H    77.910  53.480  56.300
   H    78.860  53.070  54.960
   H    77.080  52.840  54.930
   H    78.240  47.830  56.440
   H    76.710  47.950  55.600
   H    76.700  47.150  57.090
   H    74.880  49.320  57.640
   H    75.780  48.260  58.750
   H    75.730  50.000  58.950
   H    78.530  48.450  58.850
   H    77.970  50.150  59.180
   H    84.510  49.470  59.580
   H    84.520  50.270  61.170
   H    84.320  51.100  57.430
   H    84.890  52.700  57.670
   H    83.270  52.200  58.170
   H    84.290  54.980  61.660
   H    85.480  56.330  59.170
   H    86.310  56.100  60.680
   H    86.760  58.660  59.680
   H    85.610  59.830  60.000
   H    85.270  58.730  58.730
   H    85.240  59.040  62.390
   H    85.080  57.270  62.790
   H    86.570  57.930  62.200
   H    82.030  55.490  62.400
   H    82.910  56.880  63.090
   H    81.240  57.000  62.690
   H    80.670  58.180  60.780
   H    81.290  57.870  59.320
   H    80.470  56.530  60.450
   H    82.980  55.920  59.070
   H    82.260  54.800  60.250
   H    86.390  50.180  58.320
   H    86.730  51.870  58.460
   H    88.730  49.690  58.380
   H    89.750  50.510  59.590
   H    88.810  51.400  58.290
   H    88.590  53.870  62.450
   H    87.440  51.990  64.680
   H    86.470  53.120  63.960
   H    87.050  55.320  63.910
   H    87.490  56.090  65.430
   H    85.900  55.270  65.230
   H    87.190  54.140  67.530
   H    88.200  52.800  67.160
   H    86.510  52.830  66.700
   H    92.170  52.830  64.480
   H    91.420  52.920  66.020
   H    92.300  54.340  65.420
   H    89.720  55.490  62.970
   H    91.320  54.790  62.700
   H    91.030  56.010  64.030
   H    89.780  51.930  64.240
   H    90.650  52.540  62.810
   H    86.590  49.850  61.650
   H    86.570  48.840  60.260
   H    89.730  48.170  60.070
   H    89.520  46.870  61.100
   H    88.240  47.160  59.890
   H    86.350  45.840  64.020
   H    86.030  44.620  61.230
   H    84.770  45.290  62.170
   H    84.950  41.310  61.690
   H    86.080  42.410  60.990
   H    84.580  42.710  60.690
   H    83.400  42.500  63.750
   H    83.930  44.040  64.350
   H    83.230  43.980  62.720
   H    89.500  42.580  64.500
   H    88.230  41.370  64.880
   H    88.640  41.770  63.240
   H    87.080  43.250  66.450
   H    86.500  44.650  65.720
   H    88.190  44.500  65.880
   H    88.010  44.080  62.210
   H    88.780  45.020  63.620
   H    89.840  49.940  61.730
   H    89.000  49.910  63.220
   H    90.150  48.630  62.700
  