239
PTMA_CHAIN6_frame9
 C    62.130  38.080  34.120
   C    63.580  37.870  34.660
   C    63.840  36.350  34.640
   C    63.550  38.320  36.140
   O    63.670  37.530  37.140
   O    63.090  39.530  36.310
   C    63.460  40.270  37.530
   C    64.410  41.360  37.130
   C    64.790  42.310  38.250
   C    66.040  41.700  38.890
   C    65.210  43.640  37.720
   N    63.740  42.520  39.370
   O    64.010  43.200  40.350
   C    62.410  41.930  39.200
   C    62.040  41.200  40.540
   C    61.440  43.040  39.020
   C    62.190  40.850  38.120
   C    64.500  38.680  33.710
   C    66.090  38.610  33.730
   C    66.600  38.930  35.180
   C    66.580  37.210  33.270
   O    67.270  36.480  34.010
   O    66.390  36.990  31.950
   C    66.870  35.810  31.420
   C    65.710  34.800  31.450
   C    65.630  33.800  30.280
   C    65.140  32.370  30.760
   C    64.620  34.340  29.230
   N    66.890  33.730  29.490
   O    67.260  32.670  29.020
   C    67.750  34.950  29.210
   C    69.240  34.590  29.740
   C    67.740  35.280  27.740
   C    67.290  36.150  30.030
   C    66.510  39.770  32.780
   C    67.990  40.170  32.640
   C    68.470  41.060  33.780
   C    67.870  41.020  31.310
   O    68.010  40.440  30.210
   O    67.680  42.350  31.550
   C    67.570  43.220  30.380
   C    68.940  43.800  29.960
   C    69.000  44.770  28.760
   C    68.770  44.060  27.460
   C    70.410  45.510  28.660
   N    67.860  45.870  28.990
   O    68.020  47.000  28.560
   C    66.560  45.520  29.790
   C    65.520  45.040  28.730
   C    65.900  46.770  30.470
   C    66.700  44.410  30.870
   C    69.130  39.030  32.380
   C    70.670  39.330  32.340
   C    70.960  40.580  31.420
   C    71.330  39.570  33.730
   O    72.190  40.500  33.940
   O    71.070  38.650  34.630
   C    71.710  38.710  35.980
   C    71.070  39.820  36.770
   C    71.350  39.760  38.260
   C    70.110  40.050  39.050
   C    72.350  40.840  38.520
   N    71.920  38.450  38.810
   O    72.210  38.400  40.010
   C    71.900  37.200  38.070
   C    73.350  36.790  37.900
   C    71.240  35.990  38.790
   C    71.270  37.360  36.620
   C    71.260  38.010  31.630
   C    72.740  37.460  31.690
   C    73.830  38.540  31.720
   C    72.870  36.540  32.960
   O    73.480  36.900  33.920
   O    72.110  35.420  32.930
   C    71.860  34.640  34.040
   C    70.310  34.550  34.210
   C    69.730  33.370  35.100
   C    68.860  33.990  36.200
   C    68.880  32.390  34.240
   N    70.890  32.560  35.740
   O    70.670  31.970  36.790
   C    72.220  32.300  35.120
   C    72.390  30.850  34.750
   C    73.300  32.760  36.090
   C    72.460  33.210  33.920
   C    73.010  36.540  30.440
   C    74.360  35.890  30.090
   C    75.380  36.940  29.530
   C    73.990  34.940  28.910
   O    74.250  33.750  28.970
   O    73.370  35.540  27.860
   C    73.190  34.770  26.690
   C    71.710  34.200  26.710
   C    71.330  33.370  25.450
   C    69.810  33.100  25.470
   C    71.990  31.950  25.440
   N    71.740  34.070  24.190
   O    71.250  33.660  23.140
   C    72.970  34.940  24.130
   C    72.920  35.950  23.000
   C    74.280  34.110  23.830
   C    73.180  35.680  25.440
   C    74.970  35.030  31.260
   H    61.980  37.720  33.100
   H    61.380  37.560  34.700
   H    61.900  39.140  34.010
   H    64.180  36.060  33.650
   H    63.000  35.710  34.920
   H    64.660  36.010  35.290
   H    63.860  39.580  38.270
   H    65.320  40.930  36.730
   H    63.900  41.940  36.360
   H    66.770  41.730  38.080
   H    65.820  40.720  39.300
   H    66.300  42.330  39.740
   H    66.060  43.600  37.040
   H    65.320  44.410  38.480
   H    64.530  44.110  37.010
   H    62.740  40.370  40.490
   H    62.190  41.780  41.450
   H    61.010  40.870  40.580
   H    60.470  42.640  38.740
   H    61.860  43.610  38.190
   H    61.540  43.670  39.910
   H    61.550  41.270  37.350
   H    61.640  40.010  38.540
   H    64.180  38.300  32.740
   H    64.220  39.730  33.780
   H    66.570  40.020  35.260
   H    67.590  38.660  35.540
   H    65.920  38.440  35.880
   H    67.750  35.430  31.940
   H    66.010  34.270  32.350
   H    64.720  35.240  31.570
   H    64.950  31.780  29.860
   H    65.920  31.870  31.330
   H    64.210  32.420  31.330
   H    63.710  34.720  29.690
   H    64.500  33.550  28.490
   H    64.970  35.190  28.640
   H    69.840  35.480  29.570
   H    69.270  34.170  30.740
   H    69.680  33.800  29.140
   H    66.900  35.890  27.390
   H    68.670  35.840  27.600
   H    67.790  34.450  27.040
   H    66.420  36.610  29.560
   H    68.030  36.950  30.050
   H    66.110  40.710  33.150
   H    66.020  39.670  31.810
   H    69.380  41.640  33.610
   H    67.770  41.820  34.110
   H    68.700  40.460  34.670
   H    67.180  42.730  29.490
   H    69.600  42.960  29.720
   H    69.370  44.370  30.780
   H    68.670  44.780  26.640
   H    67.880  43.440  27.310
   H    69.620  43.440  27.200
   H    71.190  44.750  28.720
   H    70.680  45.890  27.680
   H    70.650  46.290  29.380
   H    64.530  44.820  29.130
   H    65.870  44.170  28.170
   H    65.420  45.800  27.940
   H    65.660  47.530  29.730
   H    64.990  46.400  30.940
   H    66.600  47.250  31.150
   H    65.690  44.030  30.990
   H    66.990  44.870  31.820
   H    68.710  38.480  31.540
   H    69.080  38.330  33.210
   H    70.450  41.520  31.580
   H    70.720  40.190  30.430
   H    72.030  40.730  31.260
   H    72.780  38.820  35.780
   H    70.000  39.760  36.570
   H    71.360  40.780  36.360
   H    69.250  40.480  38.530
   H    70.360  40.440  40.030
   H    69.590  39.120  39.300
   H    72.480  40.940  39.600
   H    73.300  40.580  38.060
   H    72.020  41.820  38.190
   H    73.920  37.540  37.350
   H    73.850  36.680  38.860
   H    73.490  35.810  37.440
   H    71.500  35.890  39.850
   H    70.150  35.990  38.680
   H    71.530  35.010  38.420
   H    70.190  37.500  36.750
   H    71.470  36.490  36.000
   H    70.600  37.150  31.770
   H    71.170  38.140  30.560
   H    73.870  39.150  30.820
   H    74.810  38.070  31.810
   H    73.740  39.310  32.490
   H    72.360  35.070  34.900
   H    69.920  34.320  33.220
   H    69.870  35.490  34.530
   H    68.040  34.490  35.690
   H    69.340  34.810  36.740
   H    68.380  33.300  36.890
   H    69.420  31.800  33.490
   H    68.220  32.930  33.560
   H    68.300  31.730  34.880
   H    72.200  30.170  35.580
   H    73.380  30.710  34.310
   H    71.720  30.480  33.980
   H    73.190  32.190  37.020
   H    73.230  33.780  36.450
   H    74.310  32.640  35.710
   H    72.190  32.750  32.970
   H    73.540  33.310  33.780
   H    72.200  35.810  30.410
   H    72.780  37.120  29.550
   H    75.030  37.400  28.610
   H    75.800  37.700  30.200
   H    76.280  36.440  29.190
   H    73.930  33.990  26.520
   H    71.080  35.040  27.000
   H    71.630  33.520  27.560
   H    69.460  32.580  24.580
   H    69.170  33.980  25.510
   H    69.650  32.470  26.340
   H    73.050  31.960  25.210
   H    71.860  31.420  26.390
   H    71.520  31.260  24.740
   H    72.940  35.450  22.030
   H    71.980  36.500  23.040
   H    73.750  36.650  23.110
   H    74.320  33.210  24.450
   H    75.210  34.650  23.980
   H    74.240  33.790  22.790
   H    72.330  36.360  25.560
   H    74.110  36.240  25.430
   H    75.530  35.660  31.960
   H    74.290  34.370  31.810
   H    75.650  34.390  30.700
  