239
PTMA_CHAIN4_time50
 C    100.120  97.560  23.090
   C    98.870  97.260  22.320
   C    98.770  98.190  21.130
   C    97.620  97.560  23.270
   O    96.740  98.400  22.950
   O    97.580  96.790  24.310
   C    96.660  97.080  25.340
   C    95.690  95.850  25.520
   C    94.620  96.160  26.570
   C    93.460  96.940  25.920
   C    94.160  94.810  27.180
   N    95.140  96.930  27.790
   O    94.430  96.900  28.750
   C    96.550  97.500  27.850
   C    96.610  99.010  28.110
   C    97.210  96.820  29.050
   C    97.460  97.250  26.600
   C    99.030  95.770  21.840
   C    97.950  95.040  20.890
   C    96.390  95.360  21.250
   C    98.180  95.470  19.420
   O    97.280  95.360  18.580
   O    99.440  95.860  19.190
   C    100.040  95.720  17.870
   C    99.760  96.980  17.060
   C    100.520  96.950  15.670
   C    99.560  96.110  14.720
   C    100.610  98.360  15.130
   N    101.900  96.360  15.740
   O    102.650  96.470  14.730
   C    102.430  95.650  16.920
   C    102.440  94.140  16.530
   C    103.850  96.040  17.370
   C    101.540  95.850  18.130
   C    98.220  93.500  21.150
   C    98.280  92.310  20.140
   C    98.210  91.140  21.130
   C    99.690  92.290  19.490
   O    100.440  93.230  19.340
   O    100.040  91.050  19.140
   C    101.380  90.710  18.970
   C    101.610  90.140  17.570
   C    103.060  89.780  17.230
   C    103.790  91.120  16.920
   C    103.160  88.880  16.000
   N    103.670  89.050  18.390
   O    104.610  88.310  18.140
   C    103.170  89.170  19.830
   C    104.050  90.220  20.520
   C    103.360  87.840  20.520
   C    101.700  89.560  19.910
   C    97.060  92.200  19.110
   C    96.940  91.610  17.560
   C    98.270  91.980  16.730
   C    96.870  90.120  17.410
   O    96.960  89.590  16.310
   O    96.890  89.570  18.540
   C    96.910  88.160  18.590
   C    98.290  87.560  18.310
   C    98.420  85.990  18.500
   C    99.960  85.760  18.590
   C    97.780  85.230  17.370
   N    97.840  85.560  19.840
   O    98.160  84.470  20.280
   C    96.560  86.280  20.360
   C    95.250  85.490  19.920
   C    96.500  86.220  21.900
   C    96.500  87.750  20.000
   C    95.830  92.320  16.690
   C    94.350  92.310  17.010
   C    93.620  91.430  16.020
   C    94.120  91.760  18.470
   O    94.170  90.560  18.760
   O    93.940  92.670  19.400
   C    93.340  92.320  20.630
   C    94.540  91.990  21.680
   C    94.050  91.840  23.160
   C    93.570  90.360  23.360
   C    95.280  92.180  24.020
   N    93.000  92.830  23.620
   O    92.590  92.800  24.840
   C    92.120  93.460  22.560
   C    91.940  94.900  23.040
   C    90.790  92.740  22.540
   C    92.690  93.590  21.190
   C    93.740  93.820  17.050
   C    93.680  94.810  15.850
   C    95.060  95.010  15.100
   C    93.220  96.190  16.340
   O    92.750  96.920  15.470
   O    93.160  96.450  17.650
   C    92.380  97.510  18.180
   C    91.010  97.020  18.490
   C    90.090  98.040  19.190
   C    88.950  97.240  19.870
   C    89.360  98.940  18.130
   N    90.810  98.870  20.120
   O    90.150  99.730  20.710
   C    92.320  99.000  20.280
   C    92.790  98.870  21.750
   C    92.800  100.380  19.690
   C    92.940  97.790  19.560
   C    92.670  94.320  14.830
   H    100.000  98.530  23.580
   H    100.260  96.800  23.860
   H    100.880  97.590  22.320
   H    99.540  97.940  20.400
   H    98.840  99.230  21.450
   H    97.820  98.030  20.600
   H    96.000  97.930  25.170
   H    95.230  95.670  24.550
   H    96.190  94.900  25.740
   H    92.960  97.640  26.570
   H    92.650  96.300  25.560
   H    93.700  97.640  25.120
   H    93.110  94.930  27.470
   H    94.800  94.440  27.980
   H    94.210  93.970  26.480
   H    95.790  99.200  28.810
   H    97.480  99.330  28.670
   H    96.500  99.650  27.240
   H    96.970  95.760  28.960
   H    96.780  97.150  29.990
   H    98.300  96.850  29.030
   H    98.140  96.420  26.790
   H    98.220  98.030  26.500
   H    100.070  95.680  21.520
   H    98.990  95.180  22.750
   H    95.690  94.720  20.720
   H    95.990  96.360  21.100
   H    96.360  95.330  22.340
   H    99.740  94.780  17.400
   H    98.680  97.120  16.970
   H    100.160  97.820  17.630
   H    99.910  95.980  13.700
   H    99.500  95.100  15.110
   H    98.590  96.600  14.590
   H    100.960  98.320  14.100
   H    101.260  98.900  15.820
   H    99.650  98.880  15.220
   H    101.670  93.990  15.780
   H    103.370  93.890  16.010
   H    102.420  93.480  17.400
   H    104.600  95.870  16.600
   H    103.790  97.120  17.500
   H    104.280  95.570  18.250
   H    101.840  96.830  18.500
   H    101.760  95.260  19.020
   H    97.530  93.230  21.950
   H    99.130  93.440  21.750
   H    99.010  91.180  21.870
   H    97.270  91.140  21.690
   H    98.210  90.140  20.690
   H    102.060  91.540  19.150
   H    101.320  90.870  16.820
   H    100.930  89.310  17.340
   H    103.910  91.750  17.800
   H    103.190  91.700  16.220
   H    104.740  90.860  16.460
   H    103.000  87.830  16.260
   H    102.400  89.150  15.270
   H    104.180  88.890  15.600
   H    105.010  90.280  20.010
   H    104.340  89.850  21.510
   H    103.650  91.220  20.650
   H    104.360  87.470  20.720
   H    102.940  87.720  21.520
   H    102.850  87.060  19.960
   H    101.400  89.840  20.910
   H    101.010  88.760  19.650
   H    96.490  93.130  19.110
   H    96.350  91.570  19.630
   H    98.670  92.950  17.030
   H    98.080  91.960  15.650
   H    99.040  91.220  16.880
   H    96.170  87.750  17.900
   H    98.890  88.130  19.010
   H    98.640  87.940  17.350
   H    100.150  84.690  18.690
   H    100.420  86.150  19.500
   H    100.520  86.220  17.780
   H    97.150  84.430  17.780
   H    97.190  85.850  16.700
   H    98.380  84.550  16.770
   H    94.350  85.980  20.290
   H    95.160  85.470  18.840
   H    95.220  84.440  20.220
   H    97.220  86.920  22.310
   H    95.530  86.650  22.150
   H    96.770  85.220  22.230
   H    97.160  88.280  20.680
   H    95.480  88.120  20.120
   H    96.130  93.370  16.710
   H    95.940  92.020  15.650
   H    93.820  91.630  14.970
   H    92.580  91.340  16.330
   H    93.960  90.430  16.270
   H    92.500  91.670  20.390
   H    95.420  92.620  21.580
   H    95.000  91.030  21.440
   H    94.400  89.670  23.260
   H    92.800  90.100  22.630
   H    93.210  90.150  24.370
   H    96.200  91.690  23.700
   H    95.080  91.850  25.040
   H    95.510  93.250  23.970
   H    91.490  94.980  24.030
   H    91.360  95.530  22.370
   H    92.960  95.260  23.150
   H    90.420  92.730  23.570
   H    90.860  91.750  22.100
   H    90.150  93.240  21.820
   H    93.380  94.430  21.190
   H    91.920  93.880  20.480
   H    92.810  93.930  17.610
   H    94.300  94.360  17.820
   H    95.440  94.050  14.750
   H    95.000  95.700  14.260
   H    95.860  95.410  15.730
   H    92.430  98.380  17.530
   H    90.910  96.070  19.030
   H    90.480  96.790  17.560
   H    89.230  96.450  20.570
   H    88.340  96.750  19.110
   H    88.290  97.950  20.360
   H    88.570  99.520  18.600
   H    90.050  99.540  17.530
   H    88.820  98.350  17.390
   H    92.860  99.790  22.330
   H    92.190  98.190  22.360
   H    93.730  98.330  21.710
   H    92.230  101.140  20.220
   H    92.650  100.490  18.620
   H    93.810  100.570  20.030
   H    92.940  96.850  20.100
   H    93.990  97.980  19.300
   H    91.730  94.030  15.310
   H    92.640  94.990  13.970
   H    92.950  93.400  14.330
  