239
PTMA_CHAIN7_time4
 C    2.940  5.510  11.310
   C    3.110  6.860  11.880
   C    4.670  6.990  12.040
   C    2.500  6.890  13.280
   O    3.000  7.580  14.200
   O    1.370  6.160  13.420
   C    0.710  6.050  14.630
   C    -0.790  5.640  14.340
   C    -1.500  5.230  15.600
   C    -2.660  6.190  15.930
   C    -2.190  3.880  15.370
   N    -0.640  5.200  16.830
   H    -1.130  5.430  17.780
   C    0.790  4.910  16.780
   C    1.330  6.000  17.600
   C    1.030  3.480  17.440
   C    1.380  4.950  15.420
   C    2.520  7.890  10.890
   C    2.480  9.420  10.990
   C    1.620  9.840  12.240
   C    3.920  10.040  11.050
   O    4.260  10.690  12.030
   O    4.670  9.510  10.070
   C    5.990  10.020  9.820
   C    6.660  8.990  8.880
   C    7.840  9.620  8.090
   C    9.020  8.660  8.190
   C    7.500  9.720  6.600
   N    8.290  10.880  8.710
   H    9.360  11.040  8.820
   C    7.360  12.000  8.990
   C    7.920  12.670  10.170
   C    7.330  12.910  7.760
   C    5.960  11.400  9.220
   C    1.800  9.900  9.600
   C    1.320  11.330  9.300
   C    -0.100  11.440  9.850
   C    1.160  11.340  7.730
   O    2.170  11.640  7.020
   O    -0.090  11.280  7.340
   C    -0.520  10.870  6.090
   C    -1.590  11.870  5.690
   C    -2.260  11.550  4.330
   C    -1.490  12.260  3.230
   C    -3.720  12.130  4.450
   N    -2.140  10.100  4.070
   H    -2.090  9.820  3.020
   C    -1.940  9.040  5.070
   C    -1.200  7.830  4.390
   C    -3.270  8.520  5.510
   C    -1.210  9.510  6.310
   C    2.300  12.410  9.810
   C    1.860  13.920  9.860
   C    1.240  14.320  8.400
   C    0.810  14.210  10.930
   O    0.660  13.490  11.910
   O    0.020  15.310  10.700
   C    -0.960  15.710  11.670
   C    -1.010  17.200  11.550
   C    -1.900  17.800  12.560
   C    -2.300  19.220  12.190
   C    -1.310  17.910  13.980
   N    -3.110  16.980  12.690
   H    -4.090  17.440  12.830
   C    -3.140  15.450  12.680
   C    -2.750  14.800  13.990
   C    -4.560  14.940  12.460
   C    -2.300  15.110  11.470
   C    3.120  14.850  10.050
   C    3.810  15.260  11.460
   C    5.260  15.750  11.090
   C    3.050  16.440  12.060
   O    2.420  16.340  13.090
   O    3.300  17.650  11.460
   C    3.180  18.830  12.270
   C    4.460  19.090  13.080
   C    4.120  20.170  14.030
   C    3.310  19.840  15.270
   C    5.460  20.670  14.580
   N    3.400  21.280  13.370
   H    3.280  22.250  13.850
   C    3.130  21.320  11.950
   C    4.270  22.160  11.310
   C    1.820  22.170  11.880
   C    3.060  19.970  11.300
   C    3.860  13.990  12.410
   C    4.730  13.870  13.730
   C    6.180  13.420  13.320
   C    4.150  12.720  14.630
   O    4.800  11.720  14.940
   O    2.870  12.850  15.060
   C    2.150  11.800  15.640
   C    2.480  11.730  17.160
   C    1.880  10.580  17.860
   C    1.820  10.780  19.380
   C    2.810  9.380  17.490
   N    0.470  10.320  17.340
   O    -0.150  9.270  17.710
   C    -0.190  11.180  16.220
   C    -1.470  11.840  16.820
   C    -0.820  10.200  15.190
   C    0.710  12.240  15.550
   C    4.840  15.140  14.590
   H    1.930  5.350  10.950
   H    3.610  5.180  10.520
   H    3.170  4.740  12.050
   H    5.210  7.180  11.120
   H    5.110  6.030  12.350
   H    4.860  7.760  12.790
   H    0.690  7.010  15.130
   H    -1.200  6.530  13.860
   H    -0.670  4.880  13.560
   H    -2.390  7.230  16.140
   H    -3.340  5.890  16.720
   H    -3.320  6.230  15.060
   H    -1.410  3.140  15.220
   H    -2.740  3.840  14.430
   H    -2.670  3.560  16.290
   H    1.160  6.970  17.120
   H    0.970  5.990  18.630
   H    2.400  5.890  17.820
   H    2.080  3.210  17.550
   H    0.590  2.810  16.710
   H    0.640  3.370  18.450
   H    1.380  4.020  14.850
   H    2.450  5.130  15.570
   H    2.840  7.650  9.870
   H    1.470  7.610  10.790
   H    1.270  10.870  12.290
   H    2.100  9.670  13.200
   H    0.690  9.270  12.200
   H    6.550  10.030  10.760
   H    7.080  8.130  9.400
   H    5.950  8.470  8.240
   H    8.910  7.740  7.600
   H    9.990  9.030  7.870
   H    9.150  8.360  9.230
   H    8.120  10.420  6.040
   H    6.450  10.020  6.520
   H    7.540  8.780  6.060
   H    8.780  13.270  9.860
   H    7.120  13.370  10.400
   H    8.280  11.950  10.900
   H    6.560  12.690  7.020
   H    7.180  13.950  8.070
   H    8.310  12.980  7.280
   H    5.350  11.230  8.330
   H    5.370  12.140  9.760
   H    0.930  9.250  9.550
   H    2.370  9.510  8.750
   H    -0.630  12.350  9.560
   H    -0.690  10.530  9.810
   H    -0.080  11.590  10.930
   H    0.340  10.740  5.430
   H    -1.040  12.800  5.570
   H    -2.260  11.970  6.540
   H    -2.050  12.020  2.330
   H    -0.450  11.940  3.130
   H    -1.570  13.310  3.530
   H    -4.230  12.000  3.500
   H    -4.260  11.680  5.290
   H    -3.640  13.200  4.660
   H    -0.170  8.120  4.200
   H    -1.800  7.390  3.600
   H    -1.160  6.990  5.080
   H    -3.960  8.390  4.670
   H    -3.140  7.600  6.070
   H    -3.740  9.200  6.220
   H    -0.500  8.760  6.650
   H    -1.880  9.550  7.170
   H    3.230  12.320  9.260
   H    2.480  12.240  10.880
   H    1.920  14.330  7.560
   H    0.860  15.320  8.200
   H    0.430  13.640  8.140
   H    -0.580  15.430  12.660
   H    -1.350  17.430  10.540
   H    -0.040  17.700  11.510
   H    -1.470  19.920  12.020
   H    -2.910  19.820  12.870
   H    -2.980  19.200  11.340
   H    -0.730  18.830  14.120
   H    -2.050  17.790  14.770
   H    -0.510  17.190  14.120
   H    -3.340  15.100  14.860
   H    -2.840  13.710  13.940
   H    -1.720  15.060  14.240
   H    -5.260  15.360  13.180
   H    -4.970  15.420  11.570
   H    -4.710  13.870  12.310
   H    -2.860  15.550  10.640
   H    -2.090  14.070  11.220
   H    3.890  14.430  9.410
   H    2.890  15.770  9.520
   H    5.890  14.980  10.640
   H    5.960  16.230  11.770
   H    5.170  16.450  10.250
   H    2.330  18.730  12.940
   H    5.320  19.270  12.430
   H    4.780  18.230  13.660
   H    3.130  20.760  15.830
   H    3.800  19.100  15.900
   H    2.310  19.570  14.930
   H    5.990  20.000  15.260
   H    5.350  21.610  15.110
   H    6.050  20.960  13.710
   H    4.190  22.050  10.230
   H    5.280  21.780  11.440
   H    4.170  23.220  11.570
   H    1.540  22.320  10.840
   H    1.870  23.120  12.410
   H    0.930  21.710  12.310
   H    3.870  19.930  10.570
   H    2.190  19.780  10.680
   H    2.850  13.770  12.760
   H    4.170  13.170  11.760
   H    6.060  12.650  12.560
   H    6.690  14.190  12.740
   H    6.830  13.140  14.140
   H    2.240  10.830  15.160
   H    2.200  12.630  17.720
   H    3.560  11.710  17.290
   H    1.410  9.920  19.910
   H    1.180  11.620  19.630
   H    2.770  11.090  19.800
   H    3.870  9.590  17.580
   H    2.520  8.570  18.150
   H    2.570  8.920  16.530
   H    -1.910  12.450  16.030
   H    -2.200  11.110  17.180
   H    -1.210  12.540  17.610
   H    -0.020  9.550  14.840
   H    -1.240  10.780  14.360
   H    -1.610  9.580  15.600
   H    0.600  13.200  16.050
   H    0.510  12.350  14.490
   H    5.090  15.990  13.970
   H    3.940  15.300  15.190
   H    5.540  14.880  15.390
  