239
PTMA_CHAIN2_frame5
 C    81.620  12.310  73.440
   C    82.740  12.430  72.300
   C    83.550  11.120  72.310
   C    83.640  13.620  72.700
   O    83.270  14.800  72.510
   O    84.790  13.280  73.170
   C    85.750  14.150  73.710
   C    85.320  14.380  75.140
   C    86.290  15.410  75.800
   C    85.970  16.810  75.300
   C    85.870  15.370  77.340
   N    87.730  15.000  75.650
   O    88.550  15.380  76.500
   C    88.190  14.240  74.450
   C    88.860  15.170  73.460
   C    89.310  13.230  74.900
   C    87.080  13.430  73.660
   C    82.070  12.450  70.910
   C    81.340  13.700  70.270
   C    80.330  14.410  71.270
   C    82.400  14.680  69.800
   O    82.380  15.880  70.150
   O    83.280  14.070  68.910
   C    84.500  14.740  68.520
   C    85.600  14.590  69.570
   C    87.010  15.130  69.130
   C    87.090  16.620  69.200
   C    87.930  14.580  70.180
   N    87.300  14.560  67.810
   O    88.430  14.280  67.530
   C    86.290  14.590  66.690
   C    86.150  15.960  66.070
   C    86.650  13.580  65.540
   C    84.940  14.140  67.190
   C    80.370  13.130  69.140
   C    79.810  13.970  67.940
   C    78.690  12.990  67.400
   C    80.870  14.010  66.810
   O    81.680  14.950  66.750
   O    80.870  12.950  65.880
   C    81.810  12.850  64.850
   C    81.240  13.580  63.610
   C    82.100  13.520  62.330
   C    83.260  14.570  62.370
   C    81.240  13.950  61.090
   N    82.660  12.150  62.090
   O    83.170  11.890  61.000
   C    82.670  11.090  63.220
   C    84.210  10.970  63.600
   C    82.370  9.710  62.640
   C    81.760  11.400  64.460
   C    79.350  15.440  68.410
   C    78.550  16.390  67.470
   C    78.980  16.350  65.960
   C    76.970  15.960  67.460
   O    76.620  14.930  68.070
   O    76.220  16.810  66.750
   C    74.930  16.340  66.320
   C    73.940  17.390  66.630
   C    72.430  17.100  66.220
   C    71.720  18.450  66.400
   C    71.670  16.080  67.140
   N    72.370  16.610  64.810
   O    71.270  16.710  64.190
   C    73.540  15.750  64.270
   C    73.200  14.210  64.530
   C    73.580  15.980  62.700
   C    74.930  16.230  64.800
   C    78.840  17.940  67.780
   C    78.350  18.690  69.090
   C    78.010  20.150  68.660
   C    77.060  18.170  69.790
   O    75.970  18.780  69.740
   O    77.320  17.200  70.620
   C    76.300  16.750  71.500
   C    75.160  15.980  70.870
   C    74.150  15.290  71.850
   C    72.940  16.350  72.110
   C    73.480  14.070  71.220
   N    74.750  14.830  73.100
   O    74.140  14.170  73.940
   C    76.170  15.260  73.500
   C    76.860  13.940  73.940
   C    75.980  16.230  74.730
   C    77.050  15.870  72.440
   C    79.500  18.710  70.210
   C    79.590  19.780  71.380
   C    80.040  21.090  70.880
   C    80.720  19.300  72.400
   O    81.380  18.230  72.220
   O    81.020  20.190  73.370
   C    81.990  19.900  74.370
   C    82.840  21.180  74.400
   C    83.890  21.270  75.510
   C    84.420  22.740  75.510
   C    85.130  20.350  75.250
   N    83.310  20.970  76.870
   O    83.830  21.390  77.920
   C    82.090  20.050  77.010
   C    81.130  20.530  78.140
   C    82.610  18.700  77.430
   C    81.290  19.930  75.680
   C    78.280  20.020  72.100
   H    81.060  13.230  73.560
   H    80.920  11.540  73.120
   H    82.150  11.970  74.330
   H    84.040  10.970  73.270
   H    84.200  11.070  71.440
   H    82.800  10.330  72.280
   H    85.840  15.080  73.150
   H    84.280  14.720  75.180
   H    85.290  13.430  75.670
   H    84.900  16.970  75.200
   H    86.300  16.860  74.270
   H    86.450  17.590  75.890
   H    85.910  14.330  77.670
   H    84.890  15.810  77.520
   H    86.590  15.950  77.910
   H    88.160  15.790  72.910
   H    89.510  15.840  74.020
   H    89.490  14.720  72.700
   H    89.020  12.540  75.690
   H    90.240  13.680  75.240
   H    89.520  12.510  74.110
   H    86.980  12.420  74.080
   H    87.400  13.180  72.650
   H    82.640  11.930  70.140
   H    81.330  11.650  70.990
   H    80.830  14.740  72.180
   H    79.520  13.740  71.570
   H    80.040  15.400  70.910
   H    84.270  15.800  68.430
   H    85.280  15.190  70.420
   H    85.690  13.550  69.880
   H    87.080  16.870  70.260
   H    88.070  16.960  68.850
   H    86.230  17.050  68.690
   H    88.950  14.980  70.170
   H    88.140  13.510  70.160
   H    87.590  14.910  71.160
   H    85.630  16.650  66.730
   H    87.100  16.410  65.790
   H    85.620  15.920  65.110
   H    85.920  13.560  64.720
   H    87.610  13.790  65.080
   H    86.820  12.570  65.890
   H    84.850  13.060  67.260
   H    84.180  14.390  66.460
   H    79.450  12.790  69.600
   H    80.890  12.270  68.710
   H    78.280  13.290  66.430
   H    78.980  11.960  67.180
   H    77.820  12.920  68.060
   H    82.830  13.180  65.070
   H    80.980  14.620  63.790
   H    80.260  13.120  63.470
   H    83.030  15.610  62.140
   H    83.960  14.400  61.540
   H    83.800  14.530  63.310
   H    80.480  13.240  60.750
   H    80.720  14.890  61.320
   H    81.820  14.050  60.180
   H    84.560  11.930  63.970
   H    84.830  10.710  62.740
   H    84.320  10.290  64.450
   H    82.410  8.950  63.420
   H    81.340  9.650  62.270
   H    83.090  9.510  61.850
   H    82.140  10.880  65.340
   H    80.770  10.980  64.340
   H    80.250  16.010  68.660
   H    78.740  15.330  69.310
   H    78.770  15.340  65.610
   H    79.990  16.710  65.790
   H    78.410  17.050  65.340
   H    74.640  15.360  66.700
   H    74.160  18.380  66.230
   H    73.950  17.670  67.690
   H    70.640  18.330  66.290
   H    72.120  19.250  65.770
   H    71.810  18.860  67.400
   H    70.620  16.100  66.820
   H    71.980  15.050  66.980
   H    71.760  16.320  68.200
   H    73.480  13.910  65.540
   H    72.150  13.910  64.530
   H    73.790  13.650  63.810
   H    72.740  15.580  62.130
   H    73.580  17.040  62.440
   H    74.500  15.620  62.240
   H    75.290  17.160  64.350
   H    75.610  15.440  64.460
   H    79.900  18.040  67.570
   H    78.360  18.510  66.990
   H    77.230  20.140  67.900
   H    78.770  20.680  68.090
   H    77.730  20.830  69.460
   H    75.950  17.630  72.040
   H    75.650  15.220  70.270
   H    74.570  16.560  70.150
   H    72.300  15.960  72.900
   H    72.290  16.410  71.230
   H    73.250  17.360  72.390
   H    72.950  14.420  70.330
   H    72.800  13.690  71.980
   H    74.170  13.260  70.990
   H    77.060  13.210  73.150
   H    76.260  13.380  74.660
   H    77.820  14.030  74.450
   H    75.270  15.820  75.440
   H    75.550  17.140  74.310
   H    76.890  16.590  75.200
   H    77.550  15.050  71.930
   H    77.830  16.480  72.900
   H    79.770  17.710  70.560
   H    80.480  18.810  69.740
   H    80.540  21.070  69.910
   H    79.280  21.830  70.610
   H    80.700  21.620  71.570
   H    82.550  18.980  74.160
   H    82.140  22.020  74.400
   H    83.350  21.400  73.460
   H    84.620  23.080  74.500
   H    85.310  22.760  76.140
   H    83.620  23.390  75.870
   H    85.740  20.870  74.510
   H    85.800  20.280  76.110
   H    84.970  19.310  74.980
   H    80.760  21.560  78.070
   H    80.240  19.900  78.180
   H    81.640  20.450  79.100
   H    81.960  17.980  77.910
   H    83.380  18.940  78.180
   H    83.230  18.400  76.580
   H    80.810  20.910  75.700
   H    80.570  19.120  75.660
   H    77.450  20.370  71.490
   H    77.920  19.050  72.450
   H    78.510  20.640  72.970
  