239
PTMA_CHAIN6_frame8
 C    63.350  37.170  36.940
   C    64.870  37.110  37.220
   C    65.420  35.620  37.020
   C    64.980  37.310  38.770
   O    64.670  36.470  39.640
   O    65.520  38.500  39.090
   C    65.660  38.940  40.460
   C    67.130  39.180  40.860
   C    67.380  39.710  42.290
   C    67.740  38.550  43.160
   C    68.640  40.610  42.260
   N    66.150  40.380  42.910
   O    66.220  40.750  44.020
   C    64.910  40.680  42.140
   C    63.690  39.910  42.740
   C    64.690  42.210  42.260
   C    64.970  40.310  40.620
   C    65.530  38.210  36.390
   C    67.040  38.300  35.920
   C    67.890  38.080  37.180
   C    67.250  37.130  34.910
   O    68.140  36.280  35.130
   O    66.430  37.150  33.850
   C    66.600  36.210  32.780
   C    65.230  35.750  32.220
   C    65.320  34.700  31.000
   C    65.470  33.270  31.610
   C    63.960  34.820  30.190
   N    66.490  34.910  30.060
   O    66.650  33.980  29.230
   C    67.650  35.780  30.520
   C    68.720  34.870  31.050
   C    68.280  36.430  29.260
   C    67.320  36.800  31.610
   C    67.220  39.650  35.120
   C    68.660  40.180  34.760
   C    69.090  40.800  36.150
   C    68.360  41.350  33.690
   O    67.850  41.070  32.590
   O    68.590  42.660  34.080
   C    68.050  43.770  33.410
   C    69.080  44.410  32.480
   C    68.530  45.620  31.680
   C    67.730  45.080  30.490
   C    69.720  46.410  31.230
   N    67.730  46.550  32.580
   O    67.300  47.670  32.070
   C    67.130  46.110  33.940
   C    65.590  45.950  33.840
   C    67.410  47.250  35.010
   C    67.720  44.800  34.460
   C    69.520  39.140  34.010
   C    70.970  39.380  33.510
   C    71.040  40.570  32.520
   C    71.790  39.720  34.790
   O    72.520  40.690  34.880
   O    71.670  38.810  35.790
   C    72.480  38.840  36.930
   C    72.130  39.870  38.040
   C    73.010  39.740  39.370
   C    72.230  40.190  40.610
   C    74.260  40.580  39.190
   N    73.420  38.310  39.720
   O    73.960  38.050  40.770
   C    73.350  37.220  38.710
   C    74.770  36.970  38.190
   C    73.100  35.840  39.400
   C    72.290  37.450  37.590
   C    71.510  38.110  32.720
   C    72.960  37.580  32.620
   C    73.940  38.700  32.490
   C    73.160  36.610  33.840
   O    74.010  36.910  34.680
   O    72.580  35.310  33.680
   C    72.180  34.540  34.830
   C    70.760  34.320  34.760
   C    70.280  33.320  35.930
   C    70.170  34.050  37.270
   C    68.800  32.870  35.590
   N    71.050  32.080  36.030
   O    70.610  31.090  36.570
   C    72.490  32.030  35.640
   C    72.940  30.710  35.020
   C    73.370  32.140  36.950
   C    72.930  33.220  34.650
   C    73.040  36.740  31.330
   C    74.410  35.980  30.730
   C    75.230  37.080  30.020
   C    73.990  34.840  29.720
   O    74.010  33.700  30.130
   O    73.470  35.330  28.500
   C    72.900  34.440  27.590
   C    71.430  34.030  27.960
   C    70.790  33.000  26.970
   C    69.320  33.010  27.350
   C    71.220  31.540  27.150
   N    71.000  33.360  25.560
   O    70.400  32.770  24.650
   C    72.290  34.070  25.130
   C    71.960  34.870  23.800
   C    73.410  33.120  24.700
   C    72.830  35.020  26.170
   C    75.310  35.360  31.770
   H    62.800  36.530  37.620
   H    63.000  38.170  37.200
   H    63.040  36.920  35.930
   H    65.200  35.220  36.030
   H    64.860  35.040  37.760
   H    66.480  35.530  37.240
   H    65.260  38.130  41.080
   H    67.810  38.360  40.600
   H    67.410  39.930  40.130
   H    68.590  37.990  42.770
   H    66.880  37.900  43.360
   H    68.200  38.860  44.090
   H    68.530  41.500  41.630
   H    69.500  40.140  41.790
   H    68.950  40.990  43.230
   H    63.710  38.840  42.570
   H    63.460  40.130  43.780
   H    62.750  40.150  42.220
   H    65.570  42.790  41.990
   H    64.500  42.380  43.320
   H    63.870  42.610  41.650
   H    65.400  41.010  39.910
   H    63.930  40.220  40.320
   H    64.910  38.250  35.490
   H    65.370  39.200  36.800
   H    67.960  38.870  37.930
   H    68.870  37.850  36.750
   H    67.500  37.220  37.720
   H    67.020  35.240  33.040
   H    64.620  35.350  33.040
   H    64.680  36.620  31.880
   H    66.490  32.890  31.600
   H    65.130  33.270  32.650
   H    64.900  32.540  31.050
   H    63.160  35.060  30.890
   H    63.690  33.950  29.600
   H    63.960  35.570  29.400
   H    69.000  34.100  30.340
   H    69.560  35.370  31.530
   H    68.250  34.280  31.840
   H    67.630  37.010  28.600
   H    69.140  37.080  29.420
   H    68.690  35.620  28.660
   H    66.740  37.560  31.080
   H    68.280  37.220  31.920
   H    66.630  40.450  35.570
   H    66.670  39.540  34.180
   H    68.360  41.490  36.560
   H    69.440  39.990  36.800
   H    69.950  41.450  36.040
   H    67.120  43.450  32.930
   H    69.270  43.550  31.840
   H    69.990  44.700  33.000
   H    66.850  44.560  30.870
   H    68.230  44.280  29.950
   H    67.470  45.830  29.730
   H    70.230  46.920  32.040
   H    70.400  45.820  30.610
   H    69.520  47.330  30.690
   H    65.110  46.820  33.410
   H    65.150  45.960  34.840
   H    65.320  45.100  33.230
   H    66.890  48.160  34.700
   H    67.130  47.110  36.050
   H    68.470  47.500  35.000
   H    66.950  44.320  35.050
   H    68.600  44.900  35.100
   H    68.980  38.790  33.130
   H    69.530  38.280  34.680
   H    71.040  41.560  32.980
   H    70.170  40.410  31.890
   H    71.990  40.590  32.000
   H    73.510  39.010  36.590
   H    71.080  39.740  38.300
   H    72.300  40.890  37.690
   H    72.870  40.120  41.490
   H    71.320  39.630  40.860
   H    71.820  41.190  40.520
   H    73.900  41.600  39.030
   H    74.890  40.850  40.040
   H    74.870  40.090  38.430
   H    74.810  36.110  37.520
   H    75.240  37.850  37.750
   H    75.400  36.660  39.030
   H    72.100  35.910  39.850
   H    73.240  34.990  38.730
   H    73.750  35.660  40.260
   H    71.230  37.370  37.860
   H    72.470  36.690  36.830
   H    70.880  37.270  33.020
   H    71.240  38.370  31.700
   H    73.830  39.360  31.630
   H    74.960  38.300  32.450
   H    73.810  39.440  33.280
   H    72.600  34.890  35.770
   H    70.360  33.930  33.830
   H    70.200  35.240  34.930
   H    69.710  33.350  37.960
   H    69.480  34.890  37.180
   H    71.170  34.360  37.580
   H    68.160  33.660  35.200
   H    68.180  32.460  36.390
   H    68.790  32.060  34.860
   H    74.030  30.630  34.980
   H    72.560  30.570  34.010
   H    72.640  29.850  35.610
   H    73.070  32.970  37.590
   H    74.460  32.180  36.870
   H    73.150  31.200  37.460
   H    72.680  33.020  33.610
   H    74.010  33.310  34.720
   H    72.400  35.860  31.340
   H    72.540  37.120  30.440
   H    75.950  37.570  30.680
   H    75.880  36.690  29.240
   H    74.600  37.820  29.530
   H    73.460  33.510  27.580
   H    70.770  34.890  28.050
   H    71.400  33.610  28.970
   H    68.940  33.980  27.040
   H    69.260  32.990  28.440
   H    68.820  32.160  26.900
   H    70.740  30.920  26.400
   H    72.300  31.540  27.070
   H    71.040  31.200  28.170
   H    72.710  35.540  23.390
   H    71.780  34.160  22.990
   H    71.020  35.390  23.980
   H    74.400  33.590  24.720
   H    73.180  32.640  23.750
   H    73.380  32.260  25.360
   H    71.990  35.720  26.220
   H    73.740  35.500  25.800
   H    75.710  36.040  32.520
   H    74.720  34.650  32.350
   H    76.200  34.970  31.260
  