239
PTMA_CHAIN5_frame6
 C    74.630  59.590  67.880
   C    75.270  60.810  67.300
   C    74.110  61.710  66.870
   C    76.120  60.220  66.080
   O    77.120  59.550  66.240
   O    75.620  60.390  64.780
   C    75.790  59.460  63.770
   C    74.670  58.360  63.770
   C    74.700  57.440  62.540
   C    75.760  56.340  62.530
   C    73.350  56.640  62.600
   N    74.780  58.170  61.180
   O    74.420  57.540  60.170
   C    75.530  59.550  61.120
   C    76.920  59.160  60.560
   C    74.840  60.440  60.090
   C    75.620  60.260  62.460
   C    76.280  61.350  68.380
   C    77.080  62.680  68.200
   C    77.520  62.820  66.680
   C    76.060  63.810  68.550
   O    75.760  64.630  67.650
   O    75.450  63.720  69.730
   C    74.430  64.590  70.110
   C    73.050  64.160  69.640
   C    71.920  65.060  69.970
   C    71.850  66.330  69.100
   C    70.620  64.240  69.610
   N    71.950  65.470  71.470
   O    70.890  65.830  71.940
   C    73.280  65.360  72.310
   C    73.750  66.780  72.520
   C    73.030  64.810  73.710
   C    74.440  64.580  71.640
   C    78.310  62.580  69.200
   C    79.220  63.780  69.730
   C    80.430  62.930  70.190
   C    78.400  64.490  70.880
   O    77.700  65.480  70.680
   O    78.820  64.180  72.130
   C    78.220  64.740  73.260
   C    79.050  66.010  73.670
   C    78.690  66.690  75.020
   C    77.640  67.830  74.790
   C    79.960  67.420  75.620
   N    78.060  65.780  76.070
   O    77.690  66.200  77.140
   C    77.840  64.290  75.840
   C    76.380  63.890  75.950
   C    78.520  63.500  77.060
   C    78.360  63.780  74.400
   C    79.640  64.870  68.630
   C    80.840  65.910  68.660
   C    80.960  66.420  70.110
   C    82.260  65.210  68.310
   O    83.310  65.780  68.760
   O    82.160  64.030  67.620
   C    83.280  63.350  67.090
   C    83.960  62.450  68.080
   C    85.170  61.710  67.470
   C    85.570  60.640  68.440
   C    86.340  62.700  67.260
   N    84.920  61.190  66.060
   O    85.790  60.450  65.650
   C    83.710  61.640  65.240
   C    84.280  62.430  64.050
   C    83.090  60.380  64.530
   C    82.620  62.420  66.050
   C    80.750  67.190  67.740
   C    80.840  67.320  66.210
   C    82.200  66.740  65.690
   C    79.650  66.530  65.560
   O    78.650  66.270  66.180
   O    79.960  65.890  64.330
   C    79.220  64.830  63.780
   C    78.030  65.460  63.010
   C    77.160  64.440  62.290
   C    76.120  63.780  63.240
   C    76.210  65.290  61.410
   N    77.960  63.500  61.470
   O    77.440  62.960  60.550
   C    79.340  63.090  61.920
   C    80.210  62.780  60.690
   C    79.290  61.820  62.800
   C    80.050  64.280  62.630
   C    80.860  68.860  65.890
   C    79.880  69.530  64.860
   C    78.350  69.390  65.320
   C    79.950  69.040  63.410
   O    78.920  68.790  62.730
   O    81.210  68.780  63.020
   C    81.390  68.240  61.750
   C    81.750  69.420  60.880
   C    82.190  69.040  59.440
   C    82.780  70.420  58.840
   C    80.850  68.690  58.620
   N    83.230  67.890  59.450
   O    83.970  67.700  58.480
   C    83.210  66.760  60.430
   C    84.590  66.180  60.630
   C    82.320  65.640  59.850
   C    82.580  67.190  61.810
   C    80.340  71.060  64.890
   H    73.950  59.880  68.680
   H    73.970  59.120  67.150
   H    75.260  58.840  68.360
   H    73.430  61.110  66.250
   H    74.350  62.460  66.120
   H    73.550  62.120  67.710
   H    76.710  58.870  63.770
   H    74.660  57.850  64.740
   H    73.690  58.830  63.750
   H    75.520  55.610  61.750
   H    75.830  55.870  63.500
   H    76.700  56.640  62.070
   H    72.540  57.310  62.310
   H    73.070  56.220  63.560
   H    73.310  55.790  61.910
   H    77.500  59.910  60.030
   H    77.580  58.770  61.330
   H    76.860  58.390  59.790
   H    74.170  59.850  59.460
   H    75.460  60.990  59.380
   H    74.390  61.330  60.510
   H    74.620  60.680  62.570
   H    76.320  61.090  62.370
   H    75.870  61.400  69.390
   H    77.020  60.570  68.530
   H    78.220  62.080  66.290
   H    78.050  63.770  66.590
   H    76.640  62.930  66.050
   H    74.630  65.540  69.610
   H    72.990  64.110  68.550
   H    72.810  63.160  69.990
   H    71.330  67.110  69.650
   H    72.840  66.760  68.960
   H    71.340  66.050  68.180
   H    70.410  63.490  70.380
   H    70.770  63.870  68.600
   H    69.750  64.880  69.490
   H    74.200  67.260  71.650
   H    72.990  67.370  73.020
   H    74.570  66.830  73.230
   H    72.690  63.780  73.670
   H    73.750  64.900  74.530
   H    72.090  65.270  74.020
   H    74.440  63.520  71.900
   H    75.430  64.800  72.050
   H    79.010  61.910  68.710
   H    78.030  61.910  70.010
   H    81.160  63.560  70.690
   H    80.270  62.150  70.930
   H    80.980  62.510  69.340
   H    77.200  65.080  73.050
   H    79.000  66.640  72.780
   H    80.110  65.770  73.670
   H    78.070  68.540  74.090
   H    77.330  68.400  75.670
   H    76.730  67.460  74.310
   H    80.260  68.290  75.030
   H    79.740  67.710  76.650
   H    80.800  66.730  75.740
   H    75.980  64.460  76.790
   H    76.360  62.820  76.110
   H    75.840  64.230  75.060
   H    78.540  62.430  76.880
   H    79.520  63.880  77.230
   H    77.970  63.530  78.000
   H    77.810  62.860  74.210
   H    79.400  63.450  74.400
   H    78.750  65.400  68.300
   H    79.740  64.190  67.780
   H    80.160  67.110  70.370
   H    81.910  66.940  70.250
   H    81.090  65.680  70.890
   H    83.970  64.060  66.630
   H    83.340  61.730  68.610
   H    84.240  63.050  68.940
   H    85.690  60.980  69.470
   H    86.540  60.320  68.080
   H    84.800  59.870  68.400
   H    86.630  62.920  66.230
   H    86.120  63.630  67.790
   H    87.250  62.340  67.750
   H    85.090  61.920  63.520
   H    83.580  62.600  63.230
   H    84.540  63.420  64.440
   H    82.170  60.630  64.010
   H    83.760  60.140  63.710
   H    82.850  59.500  65.120
   H    82.060  61.680  66.610
   H    81.980  63.000  65.380
   H    79.750  67.510  68.050
   H    81.370  67.930  68.230
   H    82.200  66.940  64.620
   H    82.240  65.660  65.540
   H    83.080  67.180  66.160
   H    78.900  64.060  64.480
   H    78.410  66.160  62.270
   H    77.620  66.100  63.800
   H    75.510  63.060  62.700
   H    75.470  64.520  63.710
   H    76.680  63.280  64.030
   H    75.640  66.040  61.960
   H    75.440  64.620  61.030
   H    76.740  65.740  60.570
   H    81.220  62.460  60.920
   H    80.250  63.540  59.910
   H    79.830  61.880  60.200
   H    79.000  60.940  62.230
   H    78.500  61.830  63.560
   H    80.220  61.600  63.320
   H    80.320  64.960  61.820
   H    81.000  63.870  62.970
   H    80.600  69.380  66.810
   H    81.880  69.130  65.630
   H    77.680  70.200  65.020
   H    78.040  68.420  64.930
   H    78.340  69.340  66.400
   H    80.600  67.600  61.370
   H    82.510  69.980  61.430
   H    80.850  70.040  60.950
   H    83.790  70.480  59.250
   H    82.150  71.260  59.160
   H    82.740  70.410  57.750
   H    80.060  69.370  58.940
   H    81.130  68.630  57.570
   H    80.520  67.670  58.850
   H    85.330  66.930  60.890
   H    84.430  65.470  61.440
   H    85.070  65.670  59.800
   H    81.250  65.830  59.790
   H    82.360  64.730  60.450
   H    82.650  65.340  58.850
   H    83.380  67.650  62.390
   H    82.340  66.260  62.320
   H    81.310  71.110  64.410
   H    79.710  71.640  64.210
   H    80.400  71.540  65.870
  