239
chain_3_time_0_0015ps_16rad
 C    105.500  54.530  68.860
   C    106.330  55.830  68.830
   C    107.810  55.400  68.770
   C    106.070  56.530  70.160
   O    106.880  56.600  71.080
   O    104.770  56.880  70.290
   C    104.250  57.120  71.620
   C    104.560  58.500  72.100
   C    104.060  58.710  73.580
   C    105.150  58.230  74.530
   C    103.840  60.230  73.820
   N    102.840  57.850  73.850
   H    102.330  58.160  74.760
   C    101.910  57.570  72.690
   C    100.840  56.530  73.110
   C    101.180  58.830  72.150
   C    102.740  56.920  71.550
   C    105.860  56.660  67.590
   C    106.740  57.770  66.910
   C    107.180  58.790  67.980
   C    107.950  57.140  66.230
   O    109.120  57.510  66.340
   O    107.580  56.120  65.410
   C    108.530  55.530  64.470
   C    108.980  54.160  64.930
   C    108.270  52.970  64.260
   C    108.950  51.680  64.810
   C    106.800  52.890  64.730
   N    108.240  53.070  62.760
   H    108.830  52.310  62.250
   C    108.440  54.420  62.160
   C    109.920  54.780  61.820
   C    107.620  54.480  60.850
   C    107.860  55.530  63.090
   C    105.870  58.450  65.800
   C    106.100  59.870  65.120
   C    105.420  60.940  66.020
   C    105.360  59.680  63.770
   O    105.780  58.950  62.890
   O    104.130  60.280  63.740
   C    103.280  59.880  62.620
   C    103.670  60.610  61.320
   C    102.800  60.210  60.140
   C    103.180  58.790  59.670
   C    103.170  61.180  58.980
   N    101.320  60.380  60.490
   H    100.660  60.030  59.690
   C    100.840  59.920  61.810
   C    100.540  58.400  61.920
   C    99.520  60.670  62.120
   C    101.850  60.310  62.940
   C    107.600  60.240  64.890
   C    108.240  61.230  63.800
   C    107.820  60.790  62.370
   C    107.840  62.720  63.790
   O    108.610  63.560  63.300
   O    106.590  62.990  64.210
   C    106.100  64.300  63.870
   C    104.570  64.240  63.600
   C    103.660  65.050  64.570
   C    103.530  64.330  65.920
   C    102.230  65.010  63.960
   N    104.190  66.430  64.850
   H    103.600  67.240  64.410
   C    105.670  66.660  64.730
   C    106.120  67.320  63.390
   C    106.070  67.610  65.890
   C    106.470  65.340  64.910
   C    109.790  61.100  63.810
   C    110.770  61.490  64.990
   C    112.070  61.950  64.300
   C    110.340  62.750  65.790
   O    110.530  63.890  65.390
   O    109.780  62.440  66.980
   C    110.020  63.450  68.000
   C    108.890  64.470  68.090
   C    109.270  65.590  69.110
   C    110.060  66.670  68.320
   C    107.960  66.230  69.630
   N    110.230  65.080  70.180
   H    110.370  65.700  71.070
   C    110.060  63.650  70.600
   C    108.740  63.360  71.320
   C    111.190  63.220  71.520
   C    110.140  62.710  69.350
   C    111.090  60.300  65.970
   C    112.130  59.140  65.690
   C    111.810  58.390  64.370
   C    112.120  58.170  66.910
   O    112.030  58.540  68.060
   O    112.460  56.890  66.540
   C    112.890  55.980  67.540
   C    112.390  54.590  67.220
   C    112.970  53.470  68.100
   C    112.720  52.150  67.330
   C    112.160  53.420  69.410
   N    114.390  53.720  68.480
   O    115.100  52.520  68.750
   C    115.170  54.670  67.640
   C    115.440  54.170  66.200
   C    116.560  54.960  68.300
   C    114.440  56.020  67.630
   C    113.590  59.630  65.650
   H    105.760  53.860  68.040
   H    105.690  53.960  69.770
   H    104.430  54.700  68.860
   H    108.040  54.830  67.870
   H    108.070  54.740  69.600
   H    108.460  56.270  68.820
   H    104.680  56.340  72.250
   H    105.630  58.730  72.120
   H    104.080  59.240  71.460
   H    105.410  57.170  74.440
   H    104.900  58.440  75.570
   H    106.090  58.740  74.340
   H    104.730  60.790  73.520
   H    103.660  60.450  74.870
   H    103.040  60.680  73.230
   H    100.110  56.900  73.830
   H    100.230  56.220  72.260
   H    101.320  55.660  73.550
   H    101.870  59.550  71.710
   H    100.660  59.310  72.980
   H    100.460  58.530  71.390
   H    102.350  57.310  70.610
   H    102.610  55.830  71.510
   H    105.640  55.940  66.800
   H    104.920  57.130  67.880
   H    107.810  59.600  67.610
   H    107.760  58.320  68.780
   H    106.340  59.220  68.520
   H    109.430  56.150  64.410
   H    110.050  54.050  64.760
   H    108.910  54.070  66.010
   H    110.010  51.620  64.570
   H    108.910  51.670  65.900
   H    108.490  50.770  64.420
   H    106.340  52.000  64.310
   H    106.170  53.740  64.500
   H    106.800  52.800  65.820
   H    109.990  55.810  61.480
   H    110.610  54.650  62.650
   H    110.320  54.150  61.030
   H    108.070  53.800  60.120
   H    106.570  54.260  61.050
   H    107.660  55.470  60.390
   H    106.790  55.370  63.200
   H    107.990  56.490  62.600
   H    104.840  58.480  66.180
   H    105.810  57.670  65.040
   H    106.020  61.210  66.890
   H    105.170  61.810  65.410
   H    104.490  60.530  66.400
   H    103.270  58.800  62.490
   H    104.710  60.380  61.090
   H    103.660  61.690  61.470
   H    102.590  58.520  58.790
   H    103.010  58.000  60.410
   H    104.240  58.730  59.440
   H    102.880  62.200  59.240
   H    104.240  61.130  58.820
   H    102.650  60.900  58.060
   H    100.130  58.150  62.900
   H    101.410  57.770  61.720
   H    99.830  58.110  61.150
   H    99.710  61.750  62.070
   H    98.740  60.390  61.420
   H    99.210  60.430  63.130
   H    101.550  59.830  63.870
   H    101.820  61.390  63.110
   H    108.130  59.310  64.700
   H    107.940  60.640  65.850
   H    107.940  59.720  62.190
   H    108.350  61.320  61.580
   H    106.790  61.030  62.100
   H    106.510  64.600  62.900
   H    104.260  63.200  63.590
   H    104.400  64.650  62.600
   H    103.200  63.300  65.800
   H    102.800  64.870  66.520
   H    104.450  64.250  66.510
   H    101.530  65.570  64.590
   H    102.210  65.420  62.950
   H    101.870  63.990  63.880
   H    107.210  67.310  63.290
   H    105.710  66.770  62.540
   H    105.760  68.340  63.280
   H    105.780  67.120  66.820
   H    107.150  67.780  65.880
   H    105.640  68.610  65.810
   H    106.330  64.930  65.910
   H    107.530  65.570  64.850
   H    109.990  60.060  63.550
   H    110.140  61.650  62.940
   H    112.470  61.230  63.590
   H    112.840  62.220  65.030
   H    111.950  62.880  63.760
   H    110.970  63.940  67.810
   H    108.000  63.940  68.440
   H    108.630  64.890  67.120
   H    109.420  67.100  67.540
   H    110.990  66.270  67.920
   H    110.280  67.550  68.920
   H    107.300  66.510  68.800
   H    108.180  67.130  70.200
   H    107.300  65.610  70.240
   H    108.620  63.980  72.200
   H    108.700  62.330  71.670
   H    107.860  63.430  70.670
   H    112.180  63.410  71.090
   H    111.200  62.150  71.720
   H    111.090  63.730  72.480
   H    109.380  61.930  69.380
   H    111.120  62.230  69.340
   H    111.400  60.710  66.930
   H    110.150  59.830  66.260
   H    111.950  59.000  63.480
   H    112.480  57.550  64.200
   H    110.810  57.970  64.420
   H    112.500  56.260  68.520
   H    112.560  54.410  66.160
   H    111.300  54.620  67.220
   H    113.310  52.060  66.410
   H    111.680  52.050  67.010
   H    112.940  51.270  67.930
   H    112.490  52.590  70.030
   H    112.260  54.350  69.980
   H    111.090  53.350  69.210
   H    116.080  54.890  65.690
   H    116.020  53.250  66.250
   H    114.520  54.020  65.640
   H    117.060  55.780  67.780
   H    117.200  54.080  68.230
   H    116.430  55.240  69.340
   H    114.860  56.610  66.820
   H    114.650  56.590  68.530
   H    113.770  60.380  66.420
   H    114.280  58.810  65.870
   H    113.880  60.030  64.680
  