239
PTMA_CHAIN3_time50
 C    96.960  56.250  67.720
   C    98.340  56.960  67.910
   C    99.460  55.940  67.770
   C    98.360  57.540  69.390
   O    99.150  57.190  70.270
   O    97.520  58.430  69.570
   C    97.250  58.990  70.890
   C    98.040  60.270  71.010
   C    97.770  61.050  72.240
   C    98.600  60.550  73.420
   C    97.990  62.590  72.030
   N    96.370  60.890  72.720
   H    96.040  61.460  73.590
   C    95.410  59.930  72.150
   C    95.180  58.740  73.050
   C    94.040  60.640  72.090
   C    95.840  59.450  70.840
   C    98.410  58.150  66.850
   C    99.760  58.910  66.370
   C    100.470  59.440  67.630
   C    100.740  57.940  65.600
   O    101.930  57.790  65.890
   O    100.110  57.300  64.600
   C    100.830  56.480  63.680
   C    101.010  55.060  64.190
   C    101.770  54.200  63.180
   C    103.260  54.570  63.200
   C    101.600  52.750  63.590
   N    101.250  54.330  61.730
   O    101.350  53.380  60.970
   C    100.690  55.640  61.240
   C    101.780  56.340  60.430
   C    99.500  55.270  60.280
   C    100.080  56.490  62.420
   C    99.320  60.070  65.350
   C    100.340  61.080  64.670
   C    100.370  62.260  65.630
   C    99.600  61.410  63.320
   O    99.760  60.660  62.330
   O    98.700  62.340  63.470
   C    97.630  62.560  62.540
   C    97.450  64.050  62.300
   C    96.500  64.210  61.160
   C    97.100  63.720  59.810
   C    96.220  65.690  61.000
   N    95.250  63.470  61.490
   H    94.410  63.680  60.830
   C    95.150  62.320  62.370
   C    94.910  61.070  61.460
   C    94.000  62.420  63.290
   C    96.390  62.200  63.290
   C    101.870  60.530  64.470
   C    103.050  61.160  63.520
   C    102.900  60.710  62.060
   C    102.930  62.710  63.540
   O    103.940  63.330  63.850
   O    101.860  63.230  62.960
   C    101.740  64.600  62.700
   C    101.170  64.800  61.300
   C    101.010  66.220  60.840
   C    100.090  66.310  59.620
   C    102.390  66.730  60.440
   N    100.440  67.060  61.980
   O    100.120  68.150  61.740
   C    100.530  66.690  63.470
   C    101.730  67.550  64.010
   C    99.290  67.140  64.370
   C    100.820  65.220  63.710
   C    104.510  60.590  63.930
   C    105.290  60.630  65.350
   C    106.870  60.510  65.070
   C    105.170  61.960  66.160
   O    106.140  62.630  66.410
   O    104.020  62.060  66.850
   C    103.820  63.070  67.870
   C    103.420  64.420  67.290
   C    103.390  65.510  68.440
   C    104.680  66.280  68.510
   C    102.120  66.420  68.390
   N    103.220  64.780  69.760
   H    103.610  65.190  70.690
   C    102.390  63.560  69.940
   C    100.860  63.900  69.970
   C    102.660  62.900  71.320
   C    102.710  62.620  68.800
   C    104.870  59.440  66.300
   C    105.700  59.080  67.640
   C    107.010  58.320  67.220
   C    104.790  58.060  68.440
   O    103.900  58.440  69.250
   O    104.940  56.830  68.100
   C    104.370  55.840  68.950
   C    103.290  54.990  68.180
   C    102.960  53.540  68.680
   C    103.360  52.620  67.520
   C    101.460  53.320  68.870
   N    103.700  53.090  69.870
   O    103.290  52.170  70.570
   C    105.000  53.750  70.210
   C    106.170  52.710  70.280
   C    104.830  54.300  71.670
   C    105.420  54.810  69.200
   C    106.110  60.270  68.680
   H    96.830  55.760  66.750
   H    96.750  55.470  68.440
   H    96.200  57.040  67.790
   H    99.560  55.330  66.880
   H    99.370  55.300  68.650
   H    100.450  56.410  67.770
   H    97.470  58.260  71.680
   H    99.070  59.920  71.010
   H    97.850  60.940  70.170
   H    98.360  61.200  74.260
   H    99.660  60.710  73.230
   H    98.470  59.520  73.760
   H    99.040  62.750  71.770
   H    97.770  63.140  72.950
   H    97.450  62.940  71.150
   H    96.030  58.080  73.250
   H    94.760  58.960  74.030
   H    94.510  58.020  72.570
   H    93.330  60.010  71.540
   H    94.110  61.490  71.410
   H    93.520  60.990  72.980
   H    95.670  60.200  70.070
   H    95.250  58.620  70.440
   H    98.010  57.690  65.950
   H    97.670  58.920  67.080
   H    101.420  59.920  67.390
   H    100.710  58.620  68.310
   H    99.990  60.260  68.150
   H    101.780  56.910  63.370
   H    101.630  55.130  65.090
   H    100.040  54.680  64.520
   H    103.830  54.080  63.970
   H    103.760  54.320  62.260
   H    103.500  55.620  63.360
   H    100.680  52.230  63.310
   H    101.740  52.600  64.660
   H    102.350  52.090  63.160
   H    101.500  57.330  60.060
   H    102.630  56.470  61.110
   H    102.130  55.680  59.640
   H    98.840  56.130  60.180
   H    99.840  54.930  59.300
   H    98.850  54.510  60.700
   H    99.090  56.070  62.580
   H    99.950  57.550  62.190
   H    98.450  60.510  65.850
   H    98.800  59.500  64.580
   H    101.060  63.030  65.280
   H    99.410  62.730  65.850
   H    100.720  61.880  66.590
   H    97.660  61.980  61.620
   H    98.410  64.540  62.140
   H    97.160  64.600  63.200
   H    96.470  64.150  59.030
   H    97.110  62.650  59.630
   H    98.130  64.060  59.720
   H    97.030  66.410  61.100
   H    95.850  65.830  59.990
   H    95.460  66.120  61.650
   H    93.900  61.020  61.040
   H    95.080  60.200  62.090
   H    95.630  60.980  60.650
   H    93.110  62.770  62.760
   H    93.740  61.480  63.790
   H    94.020  63.170  64.070
   H    96.490  61.160  63.610
   H    96.420  62.820  64.180
   H    101.740  59.530  64.040
   H    102.340  60.410  65.450
   H    102.950  59.640  61.870
   H    103.660  61.120  61.400
   H    101.960  60.950  61.560
   H    102.680  65.140  62.780
   H    100.240  64.230  61.250
   H    101.770  64.250  60.580
   H    100.330  67.250  59.130
   H    99.060  66.280  59.980
   H    100.220  65.440  58.960
   H    103.180  66.690  61.190
   H    102.790  66.160  59.590
   H    102.220  67.800  60.290
   H    101.760  67.520  65.100
   H    102.670  67.230  63.560
   H    101.590  68.550  63.590
   H    98.390  66.800  63.870
   H    99.370  66.750  65.390
   H    99.300  68.230  64.480
   H    99.850  64.720  63.700
   H    101.100  65.170  64.760
   H    104.460  59.530  63.710
   H    105.190  60.960  63.170
   H    107.130  59.610  64.520
   H    107.560  60.700  65.890
   H    107.080  61.400  64.470
   H    104.720  63.090  68.480
   H    102.510  64.350  66.690
   H    104.250  64.720  66.650
   H    104.870  66.830  67.590
   H    105.520  65.590  68.640
   H    104.670  67.060  69.260
   H    102.310  67.220  67.680
   H    101.920  66.830  69.380
   H    101.270  65.920  67.920
   H    100.680  64.650  70.740
   H    100.320  62.980  70.190
   H    100.420  64.270  69.040
   H    103.730  62.760  71.480
   H    102.140  61.960  71.520
   H    102.290  63.540  72.120
   H    101.830  62.390  68.190
   H    103.090  61.690  69.220
   H    103.820  59.480  66.580
   H    104.890  58.500  65.740
   H    106.910  57.580  66.430
   H    107.840  58.970  66.910
   H    107.350  57.870  68.150
   H    103.950  56.220  69.880
   H    103.510  55.050  67.120
   H    102.390  55.610  68.260
   H    104.440  52.490  67.450
   H    103.020  52.990  66.550
   H    102.970  51.610  67.620
   H    101.280  52.260  69.050
   H    101.010  53.970  69.630
   H    101.080  53.620  67.890
   H    105.750  51.890  70.860
   H    106.380  52.290  69.300
   H    107.080  53.100  70.730
   H    103.780  54.540  71.890
   H    105.370  55.220  71.900
   H    105.090  53.540  72.400
   H    105.850  54.430  68.270
   H    106.290  55.340  69.590
   H    106.820  60.900  68.160
   H    105.260  60.840  69.070
   H    106.480  59.840  69.600
  