239
PTMA_CHAIN5_frame4
 C    74.400  57.730  63.030
   C    74.660  59.260  62.900
   C    74.000  59.740  64.150
   C    73.910  59.880  61.590
   O    72.910  60.620  61.600
   O    74.510  59.380  60.540
   C    73.920  59.610  59.240
   C    74.660  60.730  58.580
   C    74.300  60.970  57.090
   C    73.350  62.200  56.920
   C    75.480  61.350  56.220
   N    73.700  59.720  56.380
   O    73.330  59.850  55.260
   C    73.490  58.400  57.040
   C    71.970  58.110  57.180
   C    74.140  57.320  56.160
   C    74.130  58.340  58.460
   C    76.220  59.400  62.920
   C    76.990  60.760  63.040
   C    76.430  61.770  62.010
   C    76.750  61.320  64.500
   O    76.760  62.560  64.780
   O    76.660  60.390  65.490
   C    76.530  60.710  66.840
   C    75.120  61.070  67.220
   C    75.050  61.490  68.720
   C    75.800  62.850  68.930
   C    73.620  61.850  69.180
   N    75.700  60.440  69.610
   O    75.090  60.150  70.620
   C    77.010  59.780  69.200
   C    78.220  60.620  69.660
   C    77.210  58.440  69.920
   C    77.060  59.550  67.670
   C    78.510  60.410  62.800
   C    79.710  61.150  63.420
   C    80.900  60.750  62.470
   C    80.040  60.540  64.870
   O    79.380  59.630  65.350
   O    81.320  60.820  65.290
   C    82.050  60.030  66.220
   C    82.000  60.530  67.590
   C    82.640  59.680  68.640
   C    81.820  58.440  69.020
   C    82.590  60.620  69.850
   N    84.040  59.220  68.150
   O    84.780  58.730  68.990
   C    84.440  59.120  66.680
   C    84.500  57.670  66.180
   C    85.920  59.670  66.500
   C    83.530  59.990  65.760
   C    79.550  62.760  63.450
   C    80.020  63.810  64.510
   C    79.620  63.500  65.990
   C    81.570  64.020  64.580
   O    81.990  64.850  65.390
   O    82.270  63.350  63.620
   C    83.580  63.820  63.300
   C    84.660  63.060  63.930
   C    86.110  63.500  63.530
   C    87.020  62.350  64.080
   C    86.470  64.760  64.370
   N    86.270  63.620  62.020
   O    87.430  63.750  61.620
   C    85.130  64.020  61.120
   C    85.170  65.530  60.740
   C    85.360  63.160  59.900
   C    83.840  63.560  61.800
   C    79.300  65.200  64.230
   C    79.400  66.120  62.930
   C    80.760  66.800  62.930
   C    79.020  65.400  61.590
   O    77.950  64.910  61.420
   O    80.050  65.170  60.810
   C    79.950  64.450  59.570
   C    81.140  64.900  58.650
   C    81.190  64.170  57.320
   C    80.150  64.880  56.340
   C    82.690  64.390  56.730
   N    80.830  62.680  57.390
   O    81.050  61.980  56.390
   C    80.070  62.110  58.490
   C    80.680  60.720  58.770
   C    78.560  61.850  58.060
   C    80.170  62.960  59.820
   C    78.300  67.260  63.310
   C    77.990  68.500  62.420
   C    76.550  68.900  62.590
   C    78.280  68.510  60.890
   O    77.420  68.330  60.010
   O    79.600  68.850  60.660
   C    80.080  69.240  59.350
   C    79.480  70.610  59.030
   C    79.660  70.800  57.510
   C    79.160  72.230  57.380
   C    78.790  69.950  56.680
   N    81.110  70.640  57.050
   O    81.530  71.200  56.020
   C    82.040  69.710  57.810
   C    83.400  70.400  57.810
   C    82.150  68.360  56.970
   C    81.580  69.410  59.280
   C    78.780  69.780  62.870
   H    74.860  57.300  63.920
   H    73.340  57.510  63.130
   H    74.710  57.080  62.210
   H    74.410  59.320  65.070
   H    72.940  59.480  64.230
   H    74.170  60.810  64.260
   H    72.880  59.910  59.270
   H    74.590  61.570  59.270
   H    75.710  60.470  58.530
   H    72.520  62.250  57.620
   H    72.990  62.200  55.900
   H    73.860  63.150  57.090
   H    76.280  60.610  56.210
   H    75.860  62.250  56.710
   H    75.220  61.600  55.190
   H    71.810  57.050  56.970
   H    71.690  58.330  58.210
   H    71.410  58.710  56.460
   H    75.010  57.740  55.670
   H    73.470  56.790  55.480
   H    74.620  56.520  56.710
   H    75.190  58.090  58.440
   H    73.800  57.440  58.990
   H    76.560  58.780  63.750
   H    76.520  58.800  62.060
   H    75.430  62.090  62.270
   H    76.360  61.300  61.030
   H    77.030  62.680  61.920
   H    77.230  61.540  66.970
   H    74.720  61.860  66.580
   H    74.490  60.230  66.960
   H    76.730  62.910  68.360
   H    75.270  63.580  68.330
   H    75.870  63.020  70.000
   H    73.170  62.550  68.470
   H    73.610  62.520  70.040
   H    72.970  60.990  69.340
   H    78.150  60.990  70.690
   H    79.070  59.940  69.690
   H    78.320  61.520  69.050
   H    76.380  57.750  69.810
   H    78.050  57.990  69.390
   H    77.280  58.640  70.990
   H    76.510  58.650  67.440
   H    78.100  59.300  67.470
   H    78.730  60.330  61.740
   H    78.610  59.370  63.130
   H    80.890  61.170  61.470
   H    81.820  61.130  62.920
   H    80.880  59.660  62.530
   H    81.730  58.990  66.120
   H    80.960  60.700  67.870
   H    82.520  61.490  67.620
   H    81.060  58.690  69.760
   H    82.520  57.750  69.480
   H    81.480  58.020  68.070
   H    81.570  60.910  70.120
   H    83.040  59.990  70.620
   H    83.320  61.430  69.810
   H    84.590  57.600  65.090
   H    83.570  57.120  66.340
   H    85.380  57.260  66.680
   H    85.940  60.720  66.790
   H    86.510  59.100  67.210
   H    86.350  59.590  65.500
   H    83.600  59.640  64.730
   H    83.880  61.030  65.710
   H    78.540  63.020  63.120
   H    80.080  63.100  62.560
   H    78.710  62.960  66.250
   H    79.650  64.450  66.540
   H    80.310  62.850  66.510
   H    83.750  64.870  63.510
   H    84.530  62.000  63.690
   H    84.610  63.050  65.020
   H    86.650  61.380  63.760
   H    86.920  62.290  65.160
   H    88.090  62.510  63.920
   H    86.510  64.560  65.440
   H    87.440  65.150  64.050
   H    85.810  65.590  64.110
   H    86.090  66.020  61.020
   H    84.910  65.780  59.710
   H    84.540  66.010  61.480
   H    85.920  62.230  60.010
   H    84.410  62.970  59.390
   H    85.960  63.770  59.230
   H    83.550  62.540  61.530
   H    83.030  64.130  61.350
   H    78.270  65.160  64.580
   H    79.780  65.870  64.940
   H    81.650  66.180  62.850
   H    80.920  67.340  63.870
   H    80.830  67.560  62.150
   H    79.000  64.630  59.050
   H    82.100  64.830  59.160
   H    80.970  65.960  58.500
   H    79.200  65.120  56.830
   H    79.990  64.210  55.500
   H    80.510  65.740  55.780
   H    82.760  64.180  55.660
   H    83.340  63.830  57.400
   H    83.050  65.420  56.730
   H    80.450  60.030  57.960
   H    80.180  60.270  59.640
   H    81.730  60.760  59.060
   H    78.510  61.240  57.150
   H    78.040  62.790  57.880
   H    77.980  61.340  58.820
   H    81.150  62.910  60.300
   H    79.380  62.590  60.470
   H    77.420  66.620  63.400
   H    78.510  67.630  64.310
   H    75.850  68.090  62.420
   H    76.470  69.180  63.640
   H    76.300  69.750  61.970
   H    79.770  68.430  58.690
   H    79.970  71.420  59.580
   H    78.440  70.640  59.360
   H    79.720  72.990  57.930
   H    78.180  72.460  57.810
   H    78.960  72.470  56.340
   H    78.970  70.110  55.620
   H    78.760  68.870  56.830
   H    77.730  70.200  56.730
   H    84.150  69.760  58.270
   H    83.790  70.620  56.820
   H    83.410  71.390  58.270
   H    82.320  68.570  55.920
   H    81.210  67.810  56.960
   H    82.980  67.730  57.310
   H    81.990  70.190  59.920
   H    82.090  68.560  59.730
   H    79.850  69.600  62.790
   H    78.560  70.680  62.290
   H    78.510  70.140  63.870
  