239
PTMA_CHAIN5_frame2
 C    75.290  55.100  67.550
   C    75.840  56.310  66.710
   C    74.690  57.370  66.830
   C    75.880  55.950  65.200
   O    75.070  56.310  64.400
   O    76.880  55.080  64.920
   C    77.010  54.370  63.670
   C    78.290  54.910  63.070
   C    78.680  54.050  61.730
   C    77.880  54.720  60.620
   C    80.140  54.190  61.350
   N    78.380  52.530  61.810
   O    78.660  51.880  60.750
   C    77.350  52.010  62.720
   C    76.020  51.980  62.010
   C    77.800  50.590  63.120
   C    77.140  52.900  64.000
   C    77.270  56.670  67.330
   C    78.130  57.970  66.950
   C    78.630  57.710  65.490
   C    77.320  59.260  67.080
   O    76.950  59.840  66.100
   O    76.930  59.540  68.310
   C    75.990  60.560  68.540
   C    75.140  60.080  69.650
   C    74.250  61.170  70.420
   C    72.840  61.260  69.630
   C    73.970  60.790  71.880
   N    74.820  62.570  70.290
   O    74.410  63.470  71.000
   C    75.930  62.960  69.320
   C    75.370  63.560  68.040
   C    76.860  63.980  69.970
   C    76.820  61.770  68.900
   C    79.310  57.960  68.000
   C    80.650  58.840  67.900
   C    81.460  58.290  66.670
   C    81.340  58.520  69.270
   O    80.720  58.630  70.290
   O    82.660  58.020  69.170
   C    83.310  57.620  70.360
   C    84.300  58.640  70.740
   C    85.130  58.260  72.030
   C    84.110  58.560  73.190
   C    86.330  59.220  72.270
   N    85.520  56.820  72.190
   O    86.300  56.500  73.060
   C    85.180  55.810  71.070
   C    84.800  54.400  71.590
   C    86.510  55.570  70.360
   C    84.110  56.320  70.080
   C    80.380  60.360  67.620
   C    81.270  61.530  68.150
   C    81.040  61.550  69.720
   C    82.800  61.480  67.890
   O    83.600  61.990  68.690
   O    83.140  60.870  66.780
   C    84.490  60.770  66.340
   C    85.260  59.510  66.950
   C    86.650  59.160  66.280
   C    87.000  57.770  66.800
   C    87.730  60.120  66.700
   N    86.620  59.050  64.700
   O    87.510  58.440  64.120
   C    85.590  59.880  64.020
   C    86.340  61.100  63.410
   C    85.040  59.080  62.820
   C    84.330  60.330  64.900
   C    80.890  62.930  67.700
   C    80.950  63.570  66.250
   C    82.420  63.950  65.930
   C    80.410  62.600  65.180
   O    79.230  62.330  65.080
   O    81.290  62.260  64.310
   C    80.910  61.710  63.110
   C    81.950  62.130  62.010
   C    81.580  61.650  60.650
   C    80.380  62.450  60.150
   C    82.750  61.870  59.670
   N    81.030  60.160  60.610
   O    81.160  59.530  59.520
   C    80.540  59.510  61.840
   C    80.940  58.020  62.010
   C    79.020  59.460  61.650
   C    80.890  60.210  63.150
   C    79.950  64.800  66.430
   C    79.310  65.560  65.160
   C    77.870  65.110  64.850
   C    80.240  65.420  63.920
   O    79.970  64.640  62.990
   O    81.260  66.340  63.900
   C    82.120  66.380  62.780
   C    81.640  67.450  61.810
   C    82.660  67.530  60.610
   C    82.290  68.820  59.820
   C    82.450  66.390  59.620
   N    84.150  67.460  61.010
   O    85.000  67.830  60.210
   C    84.590  67.010  62.370
   C    85.710  67.960  63.080
   C    85.250  65.620  62.080
   C    83.410  66.870  63.390
   C    79.260  67.060  65.550
   H    74.230  54.860  67.390
   H    75.910  54.250  67.300
   H    75.370  55.350  68.610
   H    73.750  56.830  66.820
   H    74.620  58.270  66.210
   H    74.740  57.770  67.840
   H    76.140  54.470  63.020
   H    78.100  55.960  62.830
   H    79.120  54.950  63.780
   H    76.880  55.000  60.940
   H    77.720  54.100  59.730
   H    78.370  55.650  60.320
   H    80.760  53.650  62.070
   H    80.470  55.230  61.420
   H    80.350  53.750  60.380
   H    75.970  51.460  61.050
   H    75.280  51.550  62.680
   H    75.640  52.990  61.920
   H    77.700  49.850  62.330
   H    77.250  50.250  64.000
   H    78.870  50.730  63.280
   H    77.980  52.830  64.690
   H    76.300  52.550  64.600
   H    77.070  56.710  68.410
   H    77.980  55.840  67.360
   H    79.050  58.610  65.030
   H    77.800  57.700  64.770
   H    79.370  56.940  65.290
   H    75.390  60.560  67.630
   H    74.510  59.240  69.350
   H    75.770  59.570  70.370
   H    72.270  62.150  69.890
   H    73.050  61.180  68.570
   H    72.300  60.360  69.920
   H    72.950  60.410  71.970
   H    74.310  61.560  72.580
   H    74.620  59.990  72.250
   H    74.700  63.010  67.380
   H    74.760  64.420  68.320
   H    76.050  64.030  67.330
   H    77.330  63.640  70.890
   H    77.770  64.170  69.390
   H    76.310  64.900  70.190
   H    77.690  61.600  69.540
   H    77.340  62.170  68.030
   H    79.670  56.930  68.090
   H    78.820  58.130  68.960
   H    81.230  57.230  66.590
   H    81.230  58.760  65.710
   H    82.530  58.380  66.850
   H    82.640  57.470  71.210
   H    83.850  59.630  70.900
   H    85.000  58.810  69.930
   H    83.110  58.790  72.850
   H    84.310  59.370  73.890
   H    84.020  57.700  73.850
   H    85.940  60.180  72.590
   H    87.070  58.950  73.020
   H    86.920  59.310  71.360
   H    84.950  53.540  70.930
   H    83.720  54.460  71.740
   H    85.300  54.240  72.540
   H    87.310  55.380  71.070
   H    86.390  54.900  69.500
   H    86.870  56.510  69.950
   H    83.340  55.550  70.000
   H    84.450  56.320  69.050
   H    79.360  60.610  67.940
   H    80.260  60.390  66.530
   H    80.140  61.090  70.130
   H    81.120  62.480  70.280
   H    81.880  60.970  70.110
   H    85.100  61.640  66.570
   H    84.740  58.560  67.100
   H    85.500  59.830  67.960
   H    86.870  57.670  67.880
   H    88.050  57.590  66.610
   H    86.250  57.130  66.330
   H    87.600  61.090  66.240
   H    87.710  60.310  67.770
   H    88.720  59.720  66.490
   H    86.940  61.570  64.200
   H    86.920  60.890  62.510
   H    85.570  61.780  63.050
   H    85.750  58.970  62.010
   H    84.730  58.110  63.220
   H    84.190  59.690  62.510
   H    83.580  59.530  64.930
   H    83.850  61.120  64.330
   H    79.950  63.150  68.210
   H    81.540  63.630  68.220
   H    83.110  63.120  65.810
   H    82.860  64.540  66.730
   H    82.670  64.550  65.050
   H    79.880  61.970  62.850
   H    82.830  61.600  62.380
   H    82.130  63.200  62.030
   H    80.420  62.690  59.080
   H    80.360  63.430  60.610
   H    79.410  62.060  60.470
   H    83.570  61.380  60.200
   H    83.020  62.880  59.370
   H    82.690  61.220  58.790
   H    80.570  57.610  62.950
   H    82.030  57.940  61.970
   H    80.670  57.520  61.080
   H    78.420  59.090  62.490
   H    78.700  58.880  60.780
   H    78.610  60.470  61.580
   H    81.910  59.980  63.470
   H    80.160  59.990  63.920
   H    79.150  64.530  67.110
   H    80.450  65.520  67.080
   H    77.440  65.860  64.180
   H    77.760  64.140  64.360
   H    77.210  65.130  65.710
   H    82.120  65.390  62.310
   H    81.670  68.420  62.300
   H    80.600  67.320  61.500
   H    81.980  69.730  60.330
   H    81.360  68.580  59.300
   H    83.070  68.950  59.070
   H    83.340  66.120  59.040
   H    82.240  65.430  60.090
   H    81.740  66.660  58.830
   H    85.200  68.640  63.760
   H    86.420  67.350  63.630
   H    86.320  68.560  62.400
   H    84.510  64.900  61.720
   H    85.590  65.220  63.040
   H    86.110  65.600  61.410
   H    83.260  67.820  63.910
   H    83.780  66.300  64.240
   H    79.060  67.670  64.670
   H    78.540  67.250  66.350
   H    80.220  67.400  65.950
  