239
PTMA_CHAIN5_frame8
 C    72.460  56.120  66.250
   C    72.820  57.610  66.090
   C    71.500  58.460  66.150
   C    73.420  57.730  64.630
   O    74.620  57.800  64.380
   O    72.460  57.540  63.720
   C    72.800  57.290  62.350
   C    72.890  55.820  62.030
   C    73.230  55.470  60.540
   C    74.720  55.370  60.290
   C    72.740  54.020  60.290
   N    72.450  56.340  59.580
   O    72.610  55.980  58.400
   C    71.990  57.770  59.900
   C    72.930  58.970  59.380
   C    70.670  57.990  59.130
   C    71.710  57.940  61.430
   C    73.940  58.010  67.070
   C    74.340  59.490  67.390
   C    74.660  60.300  66.070
   C    73.180  60.170  68.160
   O    72.720  61.310  67.750
   O    72.600  59.310  69.040
   C    71.670  59.880  69.950
   C    70.250  59.820  69.390
   C    69.190  60.330  70.380
   C    69.290  61.930  70.400
   C    67.770  60.000  69.810
   N    69.320  59.750  71.770
   O    68.300  59.510  72.410
   C    70.660  59.320  72.250
   C    71.130  60.490  73.070
   C    70.470  58.010  73.130
   C    71.650  58.930  71.160
   C    75.640  59.540  68.210
   C    76.280  60.690  69.110
   C    77.720  60.160  69.530
   C    75.470  60.910  70.430
   O    74.360  61.350  70.500
   O    76.170  60.710  71.540
   C    75.580  60.710  72.850
   C    75.390  62.190  73.300
   C    75.030  62.360  74.770
   C    73.540  62.700  74.820
   C    75.840  63.630  75.190
   N    75.400  61.250  75.710
   O    75.070  61.430  76.890
   C    75.850  59.920  75.280
   C    74.710  58.900  75.360
   C    76.980  59.430  76.270
   C    76.450  59.960  73.830
   C    76.350  62.090  68.310
   C    77.210  63.370  68.710
   C    76.970  63.670  70.190
   C    78.700  62.950  68.480
   O    79.610  63.340  69.230
   O    78.920  62.100  67.430
   C    80.250  61.740  66.970
   C    80.900  60.660  67.750
   C    82.360  60.300  67.260
   C    82.760  59.060  68.050
   C    83.370  61.420  67.490
   N    82.320  60.050  65.790
   O    83.330  59.520  65.250
   C    81.250  60.650  64.850
   C    81.870  61.820  64.120
   C    80.830  59.610  63.800
   C    80.020  61.250  65.520
   C    76.960  64.680  68.020
   C    77.280  65.020  66.520
   C    78.870  64.930  66.140
   C    76.430  64.160  65.470
   O    75.360  63.730  65.900
   O    77.120  63.790  64.340
   C    76.440  62.940  63.350
   C    75.660  63.810  62.400
   C    74.990  63.000  61.260
   C    73.740  62.310  61.740
   C    74.690  64.010  60.220
   N    75.940  61.880  60.670
   O    75.710  61.440  59.520
   C    76.940  61.200  61.540
   C    78.190  60.760  60.660
   C    76.390  59.870  62.060
   C    77.530  62.130  62.620
   C    77.030  66.570  66.450
   C    75.940  67.300  65.560
   C    74.500  66.810  65.940
   C    76.280  67.170  64.030
   O    75.400  67.240  63.190
   O    77.570  66.810  63.830
   C    78.100  66.930  62.520
   C    78.700  68.350  62.380
   C    79.540  68.620  61.060
   C    80.520  69.800  61.350
   C    78.780  69.080  59.760
   N    80.480  67.510  60.770
   O    81.300  67.610  59.910
   C    80.160  66.100  61.230
   C    81.450  65.300  61.330
   C    79.470  65.420  60.100
   C    79.310  66.010  62.510
   C    76.000  68.750  65.970
   H    71.760  55.950  65.440
   H    73.260  55.390  66.120
   H    72.090  55.810  67.220
   H    70.740  58.150  65.420
   H    71.540  59.530  65.960
   H    71.030  58.280  67.120
   H    73.720  57.850  62.160
   H    73.630  55.390  62.700
   H    71.950  55.320  62.270
   H    75.250  54.970  61.160
   H    75.190  56.340  60.190
   H    74.940  54.840  59.360
   H    73.100  53.200  60.920
   H    73.020  53.670  59.300
   H    71.660  54.090  60.380
   H    72.690  60.030  59.270
   H    73.850  59.000  59.970
   H    73.250  58.710  58.370
   H    69.790  57.370  59.300
   H    70.910  57.720  58.100
   H    70.380  59.030  59.100
   H    70.700  57.550  61.570
   H    71.620  59.030  61.520
   H    73.860  57.490  68.030
   H    74.860  57.550  66.700
   H    74.740  61.390  66.150
   H    73.810  60.160  65.410
   H    75.530  59.950  65.510
   H    71.860  60.900  70.250
   H    70.110  60.460  68.520
   H    70.150  58.800  69.010
   H    69.070  62.320  69.410
   H    68.690  62.340  71.210
   H    70.300  62.270  70.650
   H    67.540  58.940  69.870
   H    67.690  60.300  68.770
   H    66.920  60.430  70.340
   H    72.040  60.100  73.540
   H    71.270  61.500  72.700
   H    70.340  60.600  73.810
   H    69.920  58.250  74.040
   H    69.900  57.290  72.550
   H    71.460  57.730  73.510
   H    71.510  57.910  70.790
   H    72.640  58.860  71.610
   H    76.530  59.270  67.630
   H    75.510  58.690  68.880
   H    78.340  60.820  70.130
   H    77.630  59.170  69.990
   H    78.300  59.960  68.630
   H    74.600  60.250  72.800
   H    74.660  62.690  72.670
   H    76.380  62.640  73.150
   H    72.900  61.890  74.500
   H    73.260  63.650  74.360
   H    73.340  62.810  75.890
   H    76.920  63.520  75.090
   H    75.590  64.530  74.630
   H    75.570  64.000  76.180
   H    75.010  57.920  74.990
   H    73.970  59.270  74.650
   H    74.210  58.760  76.320
   H    77.520  58.520  76.000
   H    77.710  60.230  76.430
   H    76.530  59.100  77.200
   H    76.630  58.990  73.370
   H    77.440  60.420  73.830
   H    75.340  62.470  68.190
   H    76.710  61.860  67.310
   H    76.010  64.110  70.470
   H    77.770  64.310  70.560
   H    77.240  62.750  70.720
   H    80.870  62.630  66.890
   H    80.250  59.790  67.710
   H    81.180  60.960  68.760
   H    83.830  58.870  68.100
   H    82.270  58.230  67.530
   H    82.450  59.090  69.090
   H    83.470  62.300  66.860
   H    83.100  61.860  68.450
   H    84.390  61.050  67.590
   H    81.240  62.400  63.440
   H    82.280  62.570  64.790
   H    82.630  61.640  63.350
   H    79.860  59.190  64.090
   H    80.720  60.080  62.820
   H    81.530  58.800  63.600
   H    79.160  60.570  65.460
   H    79.620  62.080  64.940
   H    75.920  64.880  68.240
   H    77.550  65.400  68.580
   H    79.580  65.190  66.930
   H    79.280  65.490  65.300
   H    79.130  63.940  65.770
   H    75.720  62.380  63.940
   H    76.250  64.620  61.980
   H    74.850  64.380  62.850
   H    73.290  61.640  61.010
   H    72.900  62.980  61.960
   H    73.960  61.750  62.640
   H    75.530  64.580  59.820
   H    74.030  64.730  60.710
   H    74.070  63.620  59.410
   H    77.950  60.380  59.670
   H    78.740  59.920  61.080
   H    78.840  61.620  60.470
   H    77.090  59.360  62.710
   H    76.240  59.230  61.180
   H    75.410  59.950  62.540
   H    78.190  62.830  62.120
   H    78.130  61.580  63.340
   H    76.830  67.000  67.430
   H    78.020  67.000  66.390
   H    74.320  65.910  65.350
   H    74.300  66.580  66.980
   H    73.790  67.550  65.550
   H    77.490  66.600  61.680
   H    79.360  68.520  63.230
   H    77.890  69.000  62.710
   H    81.310  69.390  61.980
   H    80.090  70.680  61.840
   H    81.050  70.000  60.420
   H    78.150  69.950  59.970
   H    79.510  69.360  58.990
   H    78.160  68.270  59.380
   H    82.050  65.180  60.430
   H    82.070  65.670  62.150
   H    81.240  64.280  61.650
   H    78.460  65.820  60.120
   H    79.440  64.330  60.160
   H    79.960  65.510  59.130
   H    80.000  66.320  63.300
   H    78.900  65.010  62.650
   H    76.910  69.350  65.950
   H    75.380  69.380  65.330
   H    75.590  68.820  66.980
  