239
PTMA_CHAIN5_frame9
 C    71.500  58.320  65.390
   C    72.280  59.330  64.420
   C    71.080  60.120  63.800
   C    73.120  58.530  63.400
   O    73.870  57.590  63.810
   O    72.940  58.910  62.100
   C    73.400  58.060  61.060
   C    72.480  58.270  59.790
   C    72.850  57.430  58.530
   C    72.220  56.020  58.670
   C    72.040  58.140  57.440
   N    74.400  57.360  58.380
   O    74.830  56.850  57.350
   C    75.430  57.510  59.570
   C    75.790  56.120  60.110
   C    76.750  58.250  59.090
   C    74.870  58.340  60.740
   C    73.150  60.200  65.380
   C    73.830  61.620  65.080
   C    74.570  61.610  63.740
   C    72.740  62.740  65.080
   O    72.630  63.680  64.240
   O    71.880  62.610  66.180
   C    70.860  63.580  66.320
   C    69.530  63.080  65.640
   C    68.340  64.100  65.830
   C    68.700  65.360  65.050
   C    66.970  63.590  65.240
   N    68.170  64.550  67.200
   O    67.030  64.820  67.570
   C    69.340  64.570  68.220
   C    69.900  65.990  68.230
   C    68.820  64.240  69.680
   C    70.520  63.590  67.840
   C    74.980  61.820  66.150
   C    75.560  63.170  66.700
   C    76.850  62.680  67.360
   C    74.500  63.770  67.730
   O    73.660  64.600  67.380
   O    74.560  63.270  68.980
   C    73.890  63.910  70.050
   C    74.480  65.240  70.570
   C    73.950  65.820  71.900
   C    72.950  66.890  71.510
   C    75.050  66.410  72.720
   N    73.290  64.740  72.820
   O    72.660  65.120  73.850
   C    73.260  63.270  72.500
   C    71.840  62.690  72.630
   C    74.210  62.580  73.570
   C    73.860  62.900  71.110
   C    76.020  64.240  65.550
   C    76.900  65.600  65.790
   C    76.390  66.280  67.040
   C    78.450  65.320  65.850
   O    79.250  66.080  66.440
   O    78.790  64.180  65.230
   C    80.200  63.760  65.240
   C    80.600  63.310  66.640
   C    82.080  62.790  66.810
   C    82.190  61.820  67.980
   C    83.020  63.990  67.150
   N    82.550  62.020  65.580
   O    83.410  61.210  65.770
   C    81.830  62.020  64.230
   C    82.540  62.920  63.260
   C    81.860  60.590  63.630
   C    80.280  62.460  64.440
   C    76.660  66.820  64.780
   C    77.000  66.870  63.290
   C    78.520  67.110  63.010
   C    76.480  65.550  62.600
   O    75.320  65.310  62.530
   O    77.450  64.920  61.920
   C    77.180  63.800  61.100
   C    76.480  64.120  59.810
   C    76.430  62.990  58.780
   C    75.250  62.030  59.100
   C    76.020  63.740  57.430
   N    77.670  62.150  58.720
   O    77.910  61.410  57.740
   C    78.670  62.070  59.870
   C    80.170  61.950  59.420
   C    78.300  60.820  60.670
   C    78.620  63.380  60.680
   C    76.070  68.070  62.780
   C    76.530  69.000  61.580
   C    75.360  69.940  61.210
   C    76.770  68.180  60.300
   O    76.150  67.110  60.110
   O    77.860  68.670  59.630
   C    78.470  67.960  58.580
   C    78.340  68.860  57.350
   C    79.290  68.510  56.120
   C    79.520  69.790  55.240
   C    78.540  67.580  55.120
   N    80.600  67.830  56.530
   O    81.490  67.780  55.730
   C    80.770  67.200  57.960
   C    82.280  67.300  58.360
   C    80.370  65.710  57.920
   C    79.950  67.890  59.030
   C    77.760  69.940  61.870
   H    70.940  57.570  64.820
   H    72.080  57.740  66.100
   H    70.690  58.810  65.920
   H    70.560  60.660  64.600
   H    70.420  59.420  63.290
   H    71.370  60.850  63.050
   H    73.160  57.040  61.370
   H    71.410  58.100  59.880
   H    72.530  59.340  59.580
   H    72.650  55.300  57.980
   H    71.130  56.020  58.580
   H    72.350  55.560  59.660
   H    70.990  58.240  57.700
   H    72.010  57.510  56.550
   H    72.380  59.140  57.170
   H    76.240  55.480  59.350
   H    76.580  56.170  60.870
   H    74.970  55.550  60.550
   H    77.390  58.210  59.970
   H    76.490  59.270  58.820
   H    77.290  57.750  58.280
   H    74.900  59.360  60.380
   H    75.530  58.170  61.600
   H    72.540  60.390  66.260
   H    74.010  59.580  65.640
   H    75.220  62.480  63.650
   H    73.950  61.590  62.840
   H    75.310  60.810  63.680
   H    71.160  64.570  65.980
   H    69.710  62.940  64.570
   H    69.390  62.030  65.880
   H    67.970  66.120  65.310
   H    69.670  65.800  65.270
   H    68.610  65.200  63.980
   H    66.150  64.300  65.380
   H    66.650  62.660  65.700
   H    67.070  63.390  64.180
   H    70.080  66.290  69.260
   H    70.880  66.080  67.770
   H    69.160  66.630  67.760
   H    69.700  64.330  70.310
   H    68.070  65.000  69.900
   H    68.460  63.210  69.700
   H    70.210  62.620  68.220
   H    71.390  63.970  68.380
   H    75.760  61.160  65.770
   H    74.760  61.260  67.050
   H    77.330  63.470  67.930
   H    76.540  61.850  67.990
   H    77.600  62.340  66.640
   H    72.840  64.080  69.820
   H    74.520  66.010  69.810
   H    75.570  65.230  70.590
   H    73.230  67.460  70.630
   H    72.830  67.590  72.330
   H    71.960  66.460  71.360
   H    75.500  67.360  72.420
   H    74.730  66.750  73.710
   H    75.840  65.660  72.630
   H    71.230  63.390  72.070
   H    71.410  62.710  73.630
   H    71.850  61.660  72.290
   H    73.770  62.470  74.560
   H    74.410  61.590  73.160
   H    75.190  63.050  73.520
   H    73.560  61.940  70.710
   H    74.900  62.630  71.320
   H    75.080  64.640  65.180
   H    76.450  63.760  64.660
   H    75.320  66.490  67.050
   H    76.910  67.240  67.110
   H    76.510  65.770  67.990
   H    80.800  64.560  64.820
   H    79.910  62.580  67.080
   H    80.440  64.060  67.410
   H    81.900  60.790  67.790
   H    81.700  62.240  68.860
   H    83.220  61.830  68.340
   H    84.030  63.600  67.290
   H    82.940  64.740  66.360
   H    82.740  64.340  68.140
   H    82.600  63.930  63.670
   H    83.570  62.600  63.110
   H    82.150  62.850  62.250
   H    81.430  59.820  64.260
   H    81.480  60.540  62.610
   H    82.900  60.250  63.610
   H    79.610  61.720  64.860
   H    79.860  62.630  63.440
   H    75.570  66.870  64.730
   H    77.070  67.730  65.210
   H    79.200  66.320  63.330
   H    78.730  68.030  63.550
   H    78.730  67.140  61.940
   H    76.750  62.960  61.640
   H    77.090  64.930  59.400
   H    75.520  64.590  59.990
   H    75.150  61.190  58.420
   H    74.310  62.570  58.970
   H    75.370  61.590  60.090
   H    75.230  64.460  57.640
   H    75.600  63.000  56.750
   H    76.790  64.330  56.940
   H    80.350  60.960  59.010
   H    80.880  62.320  60.160
   H    80.420  62.520  58.530
   H    77.260  60.510  60.830
   H    78.770  60.860  61.650
   H    78.720  59.990  60.100
   H    79.170  64.180  60.200
   H    79.280  63.370  61.550
   H    75.080  67.750  62.440
   H    75.740  68.820  63.500
   H    75.490  70.510  60.280
   H    74.460  69.330  61.110
   H    75.250  70.640  62.030
   H    78.050  66.970  58.420
   H    78.450  69.890  57.690
   H    77.340  68.990  56.930
   H    78.640  70.040  54.640
   H    80.270  69.630  54.480
   H    79.750  70.670  55.850
   H    77.490  67.870  55.030
   H    79.070  67.470  54.180
   H    78.360  66.610  55.580
   H    82.400  67.160  59.440
   H    82.890  66.630  57.760
   H    82.660  68.300  58.130
   H    80.090  65.390  58.930
   H    81.100  65.190  57.310
   H    79.410  65.560  57.430
   H    80.370  68.900  59.080
   H    80.000  67.400  60.000
   H    78.740  69.490  61.700
   H    77.780  70.820  61.230
   H    77.730  70.330  62.890
  