239
PTMA_CHAIN2_time0point0005
 C    90.860  17.390  87.790
   C    89.640  18.340  87.910
   C    90.080  19.520  88.780
   C    88.570  17.520  88.640
   O    88.220  17.730  89.800
   O    88.170  16.440  87.900
   C    87.530  15.350  88.610
   C    86.060  15.590  88.830
   C    85.420  14.420  89.650
   C    85.590  14.760  91.150
   C    83.900  14.420  89.360
   N    86.160  13.140  89.410
   O    85.380  12.010  89.820
   C    86.750  12.940  88.060
   C    87.600  11.640  88.040
   C    85.720  12.840  86.910
   C    87.740  14.100  87.760
   C    89.220  18.750  86.450
   C    88.360  20.040  86.140
   C    87.080  20.000  86.980
   C    89.210  21.300  86.430
   O    88.820  22.250  87.090
   O    90.420  21.230  85.810
   C    91.260  22.410  85.770
   C    92.440  22.300  86.730
   C    93.780  21.870  86.100
   C    94.840  21.900  87.240
   C    93.700  20.370  85.680
   N    94.120  22.620  84.860
   O    95.280  23.450  85.020
   C    93.040  23.360  84.170
   C    92.800  24.830  84.640
   C    93.370  23.400  82.650
   C    91.710  22.590  84.310
   C    88.070  20.020  84.600
   C    86.920  20.830  83.830
   C    85.640  19.970  83.910
   C    87.510  20.900  82.400
   O    88.480  21.590  82.130
   O    86.950  20.000  81.540
   C    87.640  19.830  80.270
   C    87.360  20.980  79.300
   C    88.100  20.790  77.950
   C    89.600  21.110  78.160
   C    87.530  21.880  77.000
   N    87.800  19.450  77.380
   O    88.540  19.230  76.170
   C    87.840  18.250  78.260
   C    89.250  17.680  78.550
   C    87.000  17.120  77.600
   C    87.150  18.550  79.620
   C    86.650  22.280  84.410
   C    86.060  23.530  83.650
   C    86.900  23.880  82.400
   C    84.620  23.500  83.070
   O    83.990  24.540  82.870
   O    84.230  22.290  82.610
   C    83.080  22.280  81.730
   C    83.220  21.150  80.690
   C    82.140  20.050  80.740
   C    82.410  19.080  81.930
   C    82.360  19.160  79.470
   N    80.760  20.570  80.940
   O    79.930  20.450  79.770
   C    80.570  21.890  81.610
   C    80.370  23.090  80.620
   C    79.320  21.790  82.500
   C    81.780  22.220  82.510
   C    86.190  24.820  84.570
   C    85.470  25.060  85.940
   C    85.240  26.600  86.030
   C    84.020  24.500  86.020
   O    83.050  25.080  85.540
   O    83.940  23.340  86.720
   C    82.680  23.170  87.420
   C    81.660  22.380  86.610
   C    80.300  22.370  87.350
   C    79.500  23.620  86.880
   C    79.500  21.120  86.860
   N    80.480  22.490  88.830
   O    79.280  22.140  89.540
   C    81.690  21.870  89.420
   C    81.740  20.320  89.330
   C    81.820  22.250  90.930
   C    82.970  22.440  88.730
   C    86.300  24.580  87.210
   C    87.500  25.390  87.850
   C    88.600  25.690  86.830
   C    88.040  24.580  89.050
   O    87.330  23.940  89.820
   O    89.370  24.820  89.250
   C    89.940  24.460  90.540
   C    91.360  23.990  90.310
   C    92.170  23.800  91.630
   C    93.680  23.760  91.210
   C    91.810  22.420  92.220
   N    91.800  24.800  92.670
   O    92.890  25.050  93.580
   C    91.180  26.060  92.220
   C    92.090  26.970  91.350
   C    90.710  26.920  93.430
   C    89.870  25.700  91.450
   C    87.050  26.710  88.520
   H    91.720  17.920  87.380
   H    91.140  17.000  88.770
   H    90.650  16.530  87.160
   H    90.920  20.050  88.320
   H    90.420  19.170  89.750
   H    89.270  20.210  89.010
   H    88.050  15.240  89.560
   H    85.880  16.560  89.290
   H    85.570  15.710  87.860
   H    86.640  14.800  91.420
   H    85.090  14.030  91.790
   H    85.160  15.740  91.380
   H    83.480  15.420  89.490
   H    83.340  13.740  90.000
   H    83.680  14.110  88.330
   H    86.990  10.740  88.080
   H    88.180  11.570  87.110
   H    88.320  11.580  88.860
   H    85.200  13.780  86.720
   H    84.990  12.050  87.090
   H    86.220  12.600  85.970
   H    87.680  14.360  86.710
   H    88.780  13.790  87.890
   H    90.140  18.810  85.860
   H    88.680  17.910  86.030
   H    86.450  20.880  86.830
   H    87.290  19.990  88.050
   H    86.510  19.110  86.740
   H    90.660  23.270  86.060
   H    92.590  23.270  87.200
   H    92.180  21.640  87.560
   H    94.950  22.900  87.660
   H    94.530  21.250  88.060
   H    95.820  21.540  86.900
   H    94.660  20.020  85.300
   H    92.940  20.180  84.920
   H    93.450  19.740  86.530
   H    91.910  25.250  84.160
   H    92.660  24.920  85.710
   H    93.640  25.480  84.360
   H    94.260  24.010  82.460
   H    93.560  22.390  82.280
   H    92.540  23.810  82.070
   H    91.780  21.620  83.820
   H    90.920  23.110  83.770
   H    87.930  18.980  84.300
   H    89.020  20.270  84.110
   H    85.120  20.080  84.860
   H    84.930  20.210  83.120
   H    85.850  18.910  83.780
   H    88.700  19.730  80.490
   H    87.630  21.940  79.750
   H    86.280  21.060  79.130
   H    90.170  21.110  77.230
   H    90.090  20.440  78.860
   H    89.720  22.110  78.570
   H    86.480  21.700  76.810
   H    87.620  22.870  77.450
   H    88.060  21.930  76.050
   H    89.190  16.780  79.170
   H    89.900  18.370  79.090
   H    89.760  17.370  77.640
   H    86.000  17.470  77.360
   H    87.470  16.750  76.690
   H    86.900  16.260  78.270
   H    87.290  17.730  80.320
   H    86.070  18.610  79.490
   H    87.610  22.610  84.800
   H    85.990  22.170  85.280
   H    87.960  23.930  82.620
   H    86.640  24.860  82.000
   H    86.700  23.210  81.560
   H    83.120  23.200  81.150
   H    84.220  20.720  80.760
   H    83.170  21.630  79.710
   H    83.420  18.680  81.870
   H    81.720  18.240  81.920
   H    82.330  19.570  82.900
   H    81.670  18.320  79.450
   H    82.210  19.740  78.550
   H    83.370  18.760  79.450
   H    80.370  24.040  81.160
   H    81.150  23.150  79.860
   H    79.410  23.060  80.090
   H    79.430  20.970  83.220
   H    79.190  22.700  83.080
   H    78.410  21.630  81.920
   H    81.860  21.520  83.350
   H    81.630  23.170  83.010
   H    87.260  24.960  84.740
   H    85.900  25.650  83.940
   H    86.170  27.160  85.870
   H    84.800  26.870  86.990
   H    84.580  26.960  85.250
   H    82.290  24.150  87.680
   H    82.040  21.360  86.480
   H    81.550  22.780  85.600
   H    79.390  23.630  85.800
   H    80.010  24.540  87.170
   H    78.490  23.640  87.300
   H    79.470  21.090  85.770
   H    78.460  21.130  87.200
   H    79.950  20.190  87.210
   H    80.850  19.860  89.770
   H    82.600  19.940  89.880
   H    81.820  19.980  88.300
   H    81.770  23.330  91.070
   H    82.780  21.920  91.340
   H    81.040  21.800  91.550
   H    83.680  21.640  88.520
   H    83.490  23.160  89.360
   H    85.580  24.430  88.010
   H    86.640  23.570  87.000
   H    88.270  26.370  86.050
   H    89.460  26.190  87.290
   H    88.960  24.780  86.350
   H    89.370  23.660  91.000
   H    91.860  24.680  89.630
   H    91.320  23.060  89.750
   H    94.020  24.730  90.840
   H    93.820  23.030  90.410
   H    94.310  23.440  92.040
   H    92.410  22.170  93.100
   H    90.770  22.370  92.540
   H    91.980  21.630  91.500
   H    91.570  27.890  91.100
   H    93.010  27.240  91.880
   H    92.380  26.510  90.410
   H    90.120  27.770  93.100
   H    91.550  27.350  93.980
   H    90.110  26.340  94.120
   H    89.530  26.570  90.890
   H    89.070  25.510  92.160
   H    86.110  26.590  89.060
   H    87.770  27.060  89.260
   H    86.960  27.540  87.820
  