239
PTMA_CHAIN9_time0point0005
 C    96.130  46.700  67.940
   C    94.800  47.450  68.210
   C    95.070  48.380  69.400
   C    93.800  46.360  68.640
   O    93.380  46.210  69.780
   O    93.560  45.490  67.620
   C    93.020  44.190  67.970
   C    91.510  44.210  68.150
   C    90.990  42.810  68.580
   C    91.070  42.750  70.130
   C    89.490  42.730  68.190
   N    91.880  41.720  68.070
   O    91.220  40.440  68.100
   C    92.540  41.940  66.750
   C    93.540  40.790  66.430
   C    91.570  42.050  65.550
   C    93.410  43.230  66.830
   C    94.400  48.190  66.900
   C    93.410  49.420  66.880
   C    92.110  49.040  67.590
   C    94.090  50.640  67.560
   O    93.570  51.340  68.420
   O    95.330  50.860  67.020
   C    96.030  52.090  67.330
   C    97.180  51.840  68.320
   C    98.580  51.720  67.680
   C    99.580  51.560  68.860
   C    98.680  50.400  66.880
   N    98.880  52.820  66.710
   O    99.930  53.690  67.160
   C    97.740  53.610  66.170
   C    97.330  54.860  66.990
   C    98.130  54.090  64.740
   C    96.510  52.690  66.010
   C    93.180  49.790  65.370
   C    91.970  50.660  64.770
   C    90.800  49.690  64.530
   C    92.610  51.160  63.450
   O    93.500  52.000  63.440
   O    92.180  50.480  62.350
   C    92.940  50.730  61.130
   C    92.570  52.060  60.480
   C    93.370  52.320  59.180
   C    94.820  52.720  59.570
   C    92.710  53.560  58.520
   N    93.250  51.160  58.260
   O    94.060  51.340  57.080
   C    93.390  49.780  58.790
   C    94.850  49.290  59.010
   C    92.720  48.790  57.800
   C    92.610  49.620  60.130
   C    91.510  51.870  65.690
   C    90.810  53.200  65.240
   C    91.660  53.960  64.190
   C    89.420  53.200  64.580
   O    88.690  54.170  64.630
   O    89.190  52.110  63.800
   C    88.080  52.230  62.860
   C    88.380  51.440  61.590
   C    87.430  50.270  61.270
   C    87.770  49.050  62.170
   C    87.790  49.780  59.830
   N    85.990  50.570  61.500
   O    85.230  50.690  60.290
   C    85.640  51.640  62.470
   C    85.330  53.030  61.830
   C    84.370  51.180  63.230
   C    86.760  51.830  63.520
   C    90.760  54.210  66.470
   C    89.970  54.000  67.810
   C    89.570  55.430  68.290
   C    88.600  53.300  67.630
   O    87.580  53.890  67.270
   O    88.610  52.000  68.000
   C    87.360  51.520  68.550
   C    86.470  50.870  67.500
   C    85.080  50.520  68.110
   C    84.170  51.770  67.940
   C    84.460  49.390  67.260
   N    85.200  50.270  69.580
   O    84.020  49.610  70.100
   C    86.450  49.630  70.070
   C    86.670  48.180  69.580
   C    86.480  49.600  71.630
   C    87.680  50.490  69.640
   C    90.800  53.290  68.960
   C    91.870  54.010  69.880
   C    92.970  54.680  69.040
   C    92.460  52.960  70.850
   O    91.790  52.070  71.370
   O    93.740  53.260  71.210
   C    94.300  52.640  72.390
   C    95.780  52.380  72.130
   C    96.550  51.930  73.410
   C    98.050  52.150  73.090
   C    96.330  50.410  73.590
   N    96.030  52.580  74.640
   O    97.040  52.670  75.680
   C    95.280  53.840  74.510
   C    96.110  55.040  73.970
   C    94.680  54.290  75.860
   C    94.060  53.580  73.580
   C    91.250  55.050  70.830
   H    96.950  47.390  67.740
   H    96.420  46.080  68.790
   H    96.030  46.040  67.070
   H    95.840  49.120  69.160
   H    95.430  47.830  70.270
   H    94.190  48.920  69.740
   H    93.510  43.860  68.880
   H    91.220  44.990  68.850
   H    91.070  44.500  67.190
   H    92.090  42.800  70.500
   H    90.640  41.830  70.510
   H    90.510  43.580  70.580
   H    88.950  43.600  68.560
   H    88.990  41.860  68.600
   H    89.360  42.710  67.110
   H    93.040  39.850  66.210
   H    94.150  41.030  65.570
   H    94.220  40.600  67.260
   H    90.960  42.950  65.620
   H    90.930  41.170  65.460
   H    92.130  42.110  64.620
   H    93.360  43.780  65.890
   H    94.470  43.020  66.940
   H    95.320  48.500  66.410
   H    94.000  47.450  66.220
   H    91.400  49.860  67.620
   H    92.290  48.760  68.630
   H    91.630  48.180  67.110
   H    95.340  52.790  67.800
   H    97.210  52.680  69.020
   H    96.980  50.950  68.920
   H    99.580  52.410  69.550
   H    99.320  50.690  69.470
   H    100.610  51.410  68.530
   H    99.690  50.270  66.490
   H    98.000  50.360  66.030
   H    98.470  49.540  67.510
   H    96.420  55.310  66.600
   H    97.150  54.630  68.040
   H    98.090  55.640  66.970
   H    98.950  54.810  64.760
   H    98.440  53.230  64.130
   H    97.280  54.570  64.260
   H    96.680  51.900  65.280
   H    95.690  53.240  65.550
   H    93.180  48.850  64.820
   H    94.110  50.260  65.040
   H    90.250  49.480  65.450
   H    90.090  50.070  63.800
   H    91.140  48.730  64.150
   H    94.000  50.710  61.380
   H    92.720  52.890  61.170
   H    91.500  52.050  60.270
   H    95.400  53.010  58.690
   H    95.370  51.940  60.100
   H    94.830  53.600  60.220
   H    91.680  53.350  58.210
   H    92.650  54.390  59.230
   H    93.270  53.910  57.660
   H    94.850  48.260  59.380
   H    95.400  49.890  59.740
   H    95.420  49.300  58.080
   H    91.690  49.080  57.600
   H    93.250  48.760  56.840
   H    92.700  47.780  58.200
   H    92.840  48.650  60.580
   H    91.540  49.630  59.950
   H    92.410  52.180  66.220
   H    90.860  51.460  66.460
   H    92.700  54.030  64.500
   H    91.310  54.980  64.040
   H    91.580  53.520  63.200
   H    88.020  53.270  62.550
   H    89.420  51.110  61.610
   H    88.320  52.150  60.770
   H    88.820  48.770  62.080
   H    87.180  48.170  61.910
   H    87.590  49.250  63.230
   H    87.210  48.910  59.540
   H    87.640  50.560  59.080
   H    88.840  49.490  59.790
   H    85.210  53.790  62.600
   H    86.130  53.360  61.170
   H    84.400  53.010  61.270
   H    84.540  50.220  63.730
   H    84.110  51.880  64.020
   H    83.510  51.070  62.570
   H    86.890  50.940  64.130
   H    86.470  52.600  64.230
   H    91.800  54.410  66.740
   H    90.430  55.170  66.070
   H    90.420  56.100  68.370
   H    89.040  55.400  69.240
   H    88.870  55.910  67.590
   H    86.830  52.350  69.020
   H    86.970  49.980  67.100
   H    86.360  51.530  66.640
   H    84.100  52.050  66.880
   H    84.550  52.630  68.500
   H    83.160  51.590  68.300
   H    84.480  49.640  66.200
   H    83.420  49.190  67.510
   H    85.000  48.450  67.360
   H    85.840  47.530  69.830
   H    87.550  47.750  70.060
   H    86.860  48.110  68.500
   H    86.300  50.600  72.040
   H    87.460  49.270  71.980
   H    85.720  48.940  72.040
   H    88.500  49.860  69.300
   H    88.090  51.050  70.480
   H    90.070  52.870  69.650
   H    91.270  52.410  68.520
   H    92.580  55.520  68.460
   H    93.770  55.090  69.660
   H    93.440  53.960  68.380
   H    93.830  51.680  72.570
   H    96.230  53.270  71.690
   H    95.860  51.630  71.350
   H    98.300  53.210  73.020
   H    98.320  51.680  72.150
   H    98.700  51.720  73.850
   H    96.910  50.010  74.420
   H    95.290  50.180  73.800
   H    96.630  49.880  72.690
   H    95.490  55.940  73.940
   H    96.940  55.250  74.640
   H    96.500  54.900  72.970
   H    94.000  55.130  75.720
   H    95.430  54.640  76.570
   H    94.130  53.490  76.350
   H    93.660  54.530  73.220
   H    93.250  53.120  74.150
   H    90.310  54.700  71.260
   H    91.910  55.270  71.670
   H    91.070  56.020  70.370
  