239
PTMA_CHAIN9_time5
 C    94.390  48.340  71.460
   C    92.930  48.880  71.460
   C    92.870  50.100  72.400
   C    92.090  47.770  72.210
   O    91.370  48.010  73.200
   O    92.400  46.520  71.660
   C    91.820  45.380  72.210
   C    90.650  44.960  71.330
   C    89.920  43.740  71.920
   C    88.950  44.110  73.110
   C    88.980  43.150  70.890
   N    90.850  42.760  72.520
   O    90.400  41.720  72.930
   C    92.290  42.870  72.530
   C    92.720  42.580  73.930
   C    92.890  41.830  71.560
   C    92.830  44.260  72.050
   C    92.360  49.030  69.960
   C    91.460  50.200  69.510
   C    90.210  50.200  70.400
   C    92.250  51.510  69.600
   O    91.700  52.610  69.920
   O    93.480  51.370  69.440
   C    94.360  52.500  69.300
   C    94.690  53.290  70.550
   C    95.560  54.500  70.150
   C    94.740  55.620  69.580
   C    96.410  55.060  71.300
   N    96.520  54.120  69.090
   O    97.310  55.000  68.700
   C    96.640  52.720  68.460
   C    96.470  52.820  66.980
   C    98.030  52.160  68.820
   C    95.620  51.730  69.000
   C    91.070  49.870  68.010
   C    90.590  50.930  66.920
   C    89.950  50.020  65.800
   C    91.870  51.540  66.140
   O    92.950  51.540  66.690
   O    91.670  51.810  64.870
   C    92.690  51.670  63.890
   C    93.010  53.040  63.410
   C    93.920  53.120  62.200
   C    95.390  52.840  62.590
   C    93.920  54.530  61.510
   N    93.570  52.090  61.170
   O    94.130  52.250  60.100
   C    92.880  50.830  61.530
   C    93.890  49.730  61.670
   C    91.980  50.470  60.390
   C    92.000  50.940  62.750
   C    89.510  52.000  67.370
   C    89.440  53.490  66.830
   C    90.610  54.280  67.310
   C    89.400  53.570  65.270
   O    90.080  54.360  64.610
   O    88.350  52.930  64.810
   C    88.230  52.690  63.430
   C    87.280  51.490  63.180
   C    87.340  51.040  61.720
   C    86.140  50.220  61.540
   C    88.620  50.220  61.450
   N    87.260  52.220  60.750
   O    87.070  52.030  59.570
   C    87.470  53.600  61.180
   C    88.820  53.990  60.500
   C    86.320  54.480  60.570
   C    87.490  53.780  62.710
   C    88.150  54.330  67.300
   C    87.240  54.010  68.500
   C    86.120  55.090  68.550
   C    86.500  52.730  68.250
   O    85.750  52.610  67.280
   O    86.830  51.730  69.050
   C    86.050  50.490  69.070
   C    86.630  49.440  68.080
   C    86.160  47.950  68.260
   C    85.000  47.670  67.340
   C    87.280  46.970  67.900
   N    85.700  47.610  69.690
   O    85.240  46.470  69.900
   C    85.450  48.630  70.780
   C    86.010  48.040  72.080
   C    83.880  48.780  70.900
   C    86.180  49.950  70.480
   C    87.810  53.980  69.940
   C    88.290  55.210  70.800
   C    89.300  56.070  70.070
   C    89.020  54.550  72.020
   O    88.760  53.410  72.400
   O    90.020  55.200  72.500
   C    90.600  54.730  73.710
   C    91.940  54.010  73.520
   C    92.620  53.570  74.840
   C    94.150  53.380  74.530
   C    92.160  52.170  75.340
   N    92.450  54.540  75.950
   O    93.200  54.400  76.970
   C    91.560  55.750  75.800
   C    92.410  56.990  76.120
   C    90.370  55.640  76.800
   C    90.910  56.000  74.460
   C    87.150  56.130  71.290
   H    95.170  49.090  71.340
   H    94.610  47.840  72.400
   H    94.510  47.640  70.640
   H    93.500  50.910  72.050
   H    93.140  49.810  73.420
   H    91.840  50.470  72.460
   H    91.530  45.520  73.250
   H    89.930  45.750  71.120
   H    90.970  44.750  70.310
   H    89.470  43.940  74.050
   H    88.090  43.440  73.050
   H    88.490  45.110  73.130
   H    88.080  43.730  70.670
   H    88.670  42.190  71.300
   H    89.470  42.880  69.950
   H    92.410  41.590  74.260
   H    93.810  42.490  73.970
   H    92.410  43.230  74.740
   H    92.440  41.990  70.580
   H    92.630  40.810  71.860
   H    93.980  41.930  71.560
   H    93.100  44.260  71.000
   H    93.730  44.470  72.630
   H    93.130  49.010  69.190
   H    91.780  48.130  69.760
   H    89.350  50.290  69.740
   H    90.260  51.040  71.100
   H    90.030  49.280  70.960
   H    94.060  53.150  68.470
   H    93.860  53.760  71.080
   H    95.110  52.680  71.350
   H    94.370  55.400  68.570
   H    93.950  55.850  70.290
   H    95.330  56.530  69.450
   H    97.230  54.380  71.540
   H    95.790  55.380  72.130
   H    96.930  55.930  70.890
   H    96.180  51.830  66.630
   H    95.700  53.520  66.680
   H    97.370  53.210  66.500
   H    98.100  51.800  69.850
   H    98.270  51.280  68.230
   H    98.820  52.920  68.760
   H    95.980  51.300  69.930
   H    95.460  50.830  68.390
   H    90.380  49.030  67.980
   H    91.870  49.290  67.550
   H    89.170  49.440  66.290
   H    89.530  50.550  64.950
   H    90.700  49.370  65.340
   H    93.500  51.100  64.330
   H    93.460  53.630  64.210
   H    92.080  53.510  63.090
   H    95.540  51.850  63.020
   H    95.690  53.570  63.350
   H    96.130  52.910  61.790
   H    92.890  54.710  61.200
   H    94.110  55.350  62.210
   H    94.490  54.710  60.590
   H    94.500  50.000  62.530
   H    94.450  49.680  60.730
   H    93.460  48.760  61.900
   H    91.350  51.320  60.110
   H    92.520  50.260  59.460
   H    91.460  49.580  60.740
   H    91.640  49.980  63.110
   H    91.090  51.510  62.530
   H    89.500  52.000  68.460
   H    88.510  51.620  67.160
   H    90.800  54.150  68.380
   H    90.590  55.340  67.070
   H    91.440  53.780  66.810
   H    89.200  52.490  62.970
   H    86.230  51.660  63.410
   H    87.520  50.650  63.840
   H    86.220  49.630  60.630
   H    85.190  50.730  61.350
   H    85.980  49.520  62.370
   H    88.630  49.500  60.630
   H    89.450  50.860  61.160
   H    89.010  49.760  62.360
   H    88.810  53.730  59.440
   H    89.040  55.050  60.360
   H    89.600  53.400  60.970
   H    85.410  53.900  60.510
   H    86.200  55.430  61.110
   H    86.540  54.670  59.520
   H    86.470  53.860  63.070
   H    88.090  54.680  62.860
   H    88.440  55.360  67.500
   H    87.570  54.560  66.410
   H    86.540  56.080  68.720
   H    85.460  54.920  69.400
   H    85.500  55.100  67.660
   H    85.000  50.630  68.840
   H    87.720  49.540  68.090
   H    86.270  49.800  67.110
   H    84.740  46.610  67.380
   H    85.240  47.930  66.310
   H    84.060  48.120  67.670
   H    87.750  47.240  66.950
   H    86.840  45.980  67.830
   H    88.030  46.970  68.690
   H    85.570  47.080  72.350
   H    85.780  48.710  72.910
   H    87.060  47.780  71.990
   H    83.560  48.950  69.870
   H    83.610  49.680  71.450
   H    83.450  47.900  71.380
   H    87.250  49.860  70.700
   H    85.840  50.740  71.150
   H    87.070  53.560  70.610
   H    88.700  53.350  70.020
   H    88.760  56.560  69.260
   H    89.830  56.870  70.580
   H    90.120  55.480  69.640
   H    89.900  54.130  74.290
   H    92.640  54.680  73.020
   H    91.850  53.070  72.990
   H    94.740  52.990  75.350
   H    94.630  54.330  74.280
   H    94.320  52.750  73.660
   H    92.940  51.590  75.840
   H    91.460  52.370  76.160
   H    91.690  51.620  74.530
   H    92.800  56.990  77.140
   H    93.240  57.020  75.420
   H    91.780  57.860  75.920
   H    89.770  56.550  76.850
   H    90.650  55.580  77.850
   H    89.590  54.910  76.570
   H    91.400  56.700  73.790
   H    89.980  56.530  74.670
   H    86.270  55.590  71.620
   H    87.480  56.590  72.220
   H    86.880  56.940  70.600
  