239
PTMA_CHAIN10_frame5
 C    71.700  63.020  49.350
   C    72.700  64.050  48.750
   C    72.250  65.420  49.280
   C    72.430  63.870  47.240
   O    71.860  64.710  46.560
   O    72.710  62.640  46.800
   C    72.870  62.400  45.410
   C    73.870  61.360  45.340
   C    74.210  60.810  43.930
   C    75.150  61.830  43.210
   C    75.050  59.600  44.170
   N    72.970  60.510  43.080
   O    72.930  59.580  42.230
   C    71.690  61.320  43.320
   C    71.700  62.590  42.380
   C    70.380  60.430  43.030
   C    71.650  61.690  44.840
   C    74.160  63.600  49.140
   C    75.470  64.450  48.840
   C    75.670  64.560  47.300
   C    75.330  65.930  49.340
   O    75.540  66.930  48.670
   O    75.170  65.840  50.680
   C    75.000  66.960  51.440
   C    74.070  66.540  52.570
   C    73.960  67.390  53.840
   C    72.850  68.470  53.630
   C    73.360  66.630  55.050
   N    75.290  68.040  54.230
   O    75.260  68.760  55.250
   C    76.360  68.260  53.210
   C    76.020  69.610  52.620
   C    77.650  68.200  53.880
   C    76.430  67.260  52.010
   C    76.690  63.600  49.480
   C    78.230  63.910  49.260
   C    78.590  63.400  47.800
   C    78.890  63.040  50.410
   O    78.410  63.060  51.600
   O    79.870  62.260  50.020
   C    80.240  61.130  50.790
   C    80.820  61.410  52.210
   C    81.540  60.330  52.970
   C    80.580  59.520  53.830
   C    82.580  60.950  53.960
   N    82.290  59.360  52.000
   O    82.970  58.510  52.620
   C    82.100  59.230  50.530
   C    81.330  58.010  50.100
   C    83.560  59.050  49.920
   C    81.330  60.390  49.920
   C    78.490  65.470  49.380
   C    79.900  66.150  49.590
   C    80.290  66.130  51.190
   C    81.000  65.430  48.750
   O    81.970  64.930  49.320
   O    80.820  65.470  47.420
   C    81.910  65.070  46.590
   C    81.990  63.520  46.560
   C    83.150  62.920  45.660
   C    83.020  61.350  45.480
   C    84.520  63.170  46.330
   N    83.090  63.630  44.280
   O    83.460  62.950  43.340
   C    82.650  65.050  44.160
   C    83.950  65.950  44.090
   C    81.930  65.190  42.780
   C    81.620  65.610  45.190
   C    79.860  67.650  49.120
   C    81.090  68.690  49.110
   C    82.120  68.440  50.270
   C    81.810  68.540  47.730
   O    82.870  67.930  47.550
   O    81.190  69.200  46.760
   C    81.790  69.550  45.460
   C    80.610  69.850  44.500
   C    81.010  70.170  43.020
   C    81.390  68.860  42.280
   C    79.850  70.850  42.230
   N    82.300  71.020  42.910
   O    82.600  71.380  41.750
   C    83.190  71.270  44.120
   C    83.470  72.760  44.240
   C    84.520  70.450  43.940
   C    82.550  70.880  45.500
   C    80.680  70.180  49.090
   C    80.000  70.950  50.250
   C    80.080  70.230  51.610
   C    78.470  71.200  49.990
   O    77.860  72.100  50.570
   O    77.800  70.360  49.170
   C    76.650  70.710  48.410
   C    76.840  69.970  47.050
   C    75.590  69.940  46.170
   C    75.950  68.860  45.090
   C    75.380  71.170  45.290
   N    74.290  69.570  46.850
   O    73.450  68.860  46.330
   C    74.020  70.140  48.270
   C    72.990  69.170  49.040
   C    73.430  71.480  48.180
   C    75.340  70.210  49.100
   C    80.620  72.330  50.440
   H    71.820  62.860  50.420
   H    70.700  63.350  49.100
   H    71.830  62.000  48.980
   H    72.510  65.580  50.330
   H    71.190  65.660  49.210
   H    72.770  66.230  48.770
   H    73.150  63.280  44.840
   H    74.760  61.670  45.880
   H    73.560  60.500  45.930
   H    75.690  61.360  42.380
   H    75.990  62.160  43.820
   H    74.740  62.700  42.700
   H    75.950  59.830  44.740
   H    75.300  59.190  43.190
   H    74.510  58.780  44.650
   H    70.740  63.090  42.510
   H    72.560  63.220  42.600
   H    71.740  62.300  41.330
   H    70.450  59.560  43.690
   H    70.270  60.050  42.020
   H    69.510  60.990  43.370
   H    71.420  60.790  45.420
   H    70.780  62.320  45.030
   H    74.290  63.430  50.210
   H    74.470  62.650  48.710
   H    75.740  63.570  46.840
   H    76.620  64.980  46.980
   H    74.910  65.100  46.730
   H    74.570  67.840  50.960
   H    73.050  66.260  52.310
   H    74.460  65.580  52.890
   H    73.050  69.410  54.150
   H    72.760  68.650  52.560
   H    71.840  68.150  53.900
   H    73.780  65.630  55.180
   H    72.300  66.400  54.930
   H    73.290  67.300  55.900
   H    75.630  70.300  53.360
   H    76.980  70.060  52.360
   H    75.290  69.670  51.810
   H    78.430  68.280  53.120
   H    77.780  69.050  54.550
   H    77.770  67.330  54.530
   H    76.730  66.260  52.330
   H    77.160  67.560  51.250
   H    76.520  62.540  49.280
   H    76.380  63.460  50.510
   H    79.660  63.230  47.710
   H    78.060  62.450  47.730
   H    78.400  64.060  46.960
   H    79.450  60.390  50.950
   H    80.040  61.760  52.880
   H    81.420  62.320  52.120
   H    79.830  60.190  54.250
   H    81.060  59.010  54.670
   H    80.040  58.740  53.290
   H    82.060  61.300  54.850
   H    83.210  60.180  54.400
   H    83.220  61.670  53.430
   H    80.320  57.950  50.500
   H    81.720  57.100  50.550
   H    81.280  57.830  49.030
   H    83.920  58.140  50.390
   H    83.510  58.870  48.850
   H    84.130  59.920  50.260
   H    80.940  60.130  48.940
   H    82.070  61.180  49.780
   H    77.850  65.820  50.190
   H    78.040  65.990  48.540
   H    79.820  66.940  51.740
   H    81.350  66.090  51.430
   H    79.930  65.180  51.600
   H    82.870  65.560  46.760
   H    81.020  63.150  46.220
   H    82.200  63.110  47.550
   H    83.940  60.970  45.060
   H    82.300  60.940  44.770
   H    82.890  60.900  46.460
   H    84.800  64.220  46.460
   H    84.440  62.770  47.340
   H    85.410  62.660  45.980
   H    84.920  65.480  44.160
   H    84.020  66.400  43.090
   H    83.980  66.800  44.770
   H    81.020  64.600  42.750
   H    81.570  66.210  42.640
   H    82.630  64.990  41.970
   H    80.610  65.240  44.970
   H    81.580  66.690  45.080
   H    79.380  67.710  48.150
   H    79.110  68.180  49.700
   H    82.790  69.290  50.300
   H    82.580  67.450  50.160
   H    81.680  68.270  51.260
   H    82.350  68.720  45.030
   H    80.000  70.690  44.820
   H    79.930  69.000  44.470
   H    82.060  68.180  42.820
   H    81.890  69.000  41.320
   H    80.480  68.270  42.170
   H    79.040  70.130  42.340
   H    80.240  71.020  41.220
   H    79.450  71.760  42.680
   H    84.390  72.960  44.790
   H    82.690  73.280  44.790
   H    83.500  73.230  43.250
   H    84.420  69.410  43.610
   H    85.100  70.350  44.850
   H    85.070  71.110  43.260
   H    81.900  71.670  45.870
   H    83.230  70.810  46.350
   H    81.570  70.790  48.930
   H    80.080  70.460  48.220
   H    79.730  69.200  51.620
   H    81.100  70.190  51.990
   H    79.450  70.790  52.300
   H    76.560  71.790  48.280
   H    77.090  68.960  47.370
   H    77.730  70.340  46.530
   H    76.970  68.930  44.700
   H    75.260  68.890  44.250
   H    75.820  67.880  45.530
   H    74.440  71.050  44.760
   H    75.400  72.090  45.870
   H    76.050  71.260  44.440
   H    72.040  69.170  48.490
   H    73.230  68.110  49.060
   H    72.740  69.620  50.010
   H    72.770  71.690  47.340
   H    74.220  72.220  48.050
   H    72.950  71.660  49.140
   H    75.530  69.240  49.560
   H    75.200  70.770  50.020
   H    80.960  72.810  49.520
   H    80.010  73.000  51.040
   H    81.570  72.180  50.950
  