239
PTMA_CHAIN6_time10
 C    67.440  31.320  30.540
   C    68.830  31.330  31.190
   C    69.720  30.530  30.250
   C    68.710  30.680  32.560
   O    68.450  31.370  33.590
   O    69.000  29.390  32.570
   C    68.940  28.770  33.810
   C    68.690  27.300  33.590
   C    68.760  26.480  34.800
   C    67.370  25.750  34.950
   C    69.820  25.450  34.650
   N    69.020  27.340  36.020
   H    68.690  27.010  37.010
   C    69.990  28.400  36.020
   C    69.550  29.550  36.890
   C    71.250  27.830  36.680
   C    70.220  28.910  34.640
   C    69.290  32.830  31.240
   C    70.750  33.280  31.630
   C    71.210  32.600  32.930
   C    71.700  32.900  30.490
   O    72.750  32.290  30.730
   O    71.310  33.180  29.230
   C    72.140  33.040  28.100
   C    72.260  31.590  27.550
   C    73.240  31.570  26.420
   C    74.650  31.550  26.940
   C    73.050  30.320  25.550
   N    72.960  32.730  25.540
   H    73.180  32.500  24.500
   C    72.360  34.060  25.870
   C    73.530  35.090  26.000
   C    71.360  34.570  24.800
   C    71.490  33.960  27.110
   C    70.560  34.800  31.890
   C    71.750  35.910  32.070
   C    70.990  37.090  32.800
   C    72.180  36.270  30.610
   O    73.190  35.700  30.090
   O    71.730  37.490  30.200
   C    72.180  38.210  29.000
   C    73.390  39.090  29.330
   C    73.870  39.680  27.960
   C    74.820  38.720  27.210
   C    74.540  41.010  28.140
   N    72.760  40.020  27.050
   H    73.000  40.480  26.100
   C    71.320  39.830  27.340
   C    70.820  38.980  26.140
   C    70.510  41.100  27.230
   C    71.090  39.110  28.580
   C    72.990  35.430  32.950
   C    74.150  36.330  33.430
   C    74.700  37.250  32.310
   C    73.680  37.240  34.580
   O    73.950  38.470  34.640
   O    72.700  36.710  35.360
   C    72.100  37.440  36.430
   C    71.100  38.460  35.960
   C    70.490  39.240  37.070
   C    69.060  39.600  36.630
   C    71.260  40.550  37.350
   N    70.430  38.470  38.320
   H    70.040  39.030  39.170
   C    70.650  37.030  38.530
   C    71.540  36.960  39.830
   C    69.290  36.320  38.790
   C    71.330  36.450  37.280
   C    75.330  35.340  33.810
   C    75.490  34.700  35.270
   C    76.730  33.830  35.030
   C    75.920  35.820  36.230
   O    76.680  36.700  35.830
   O    75.490  35.720  37.550
   C    76.070  36.510  38.590
   C    75.350  37.830  38.650
   C    75.710  38.720  39.830
   C    76.750  39.770  39.400
   C    74.470  39.400  40.490
   N    76.420  37.920  40.830
   H    77.060  38.430  41.560
   C    76.200  36.440  41.020
   C    75.250  36.260  42.150
   C    77.530  35.840  41.420
   C    75.810  35.610  39.840
   C    74.260  34.000  35.770
   C    74.150  32.640  36.570
   C    74.910  32.730  37.920
   C    74.730  31.430  35.700
   O    75.540  30.640  36.210
   O    74.590  31.540  34.380
   C    74.860  30.420  33.560
   C    73.610  29.500  33.310
   C    74.000  28.240  32.420
   C    72.750  27.890  31.600
   C    74.370  27.020  33.220
   N    75.040  28.440  31.400
   O    75.210  27.590  30.540
   C    75.810  29.750  31.280
   C    75.600  30.290  29.810
   C    77.350  29.470  31.310
   C    75.420  30.890  32.210
   C    72.650  32.390  36.810
   H    67.350  31.930  29.640
   H    67.150  30.290  30.340
   H    66.650  31.650  31.210
   H    70.720  30.380  30.630
   H    69.600  30.950  29.250
   H    69.420  29.480  30.210
   H    68.110  29.260  34.320
   H    67.750  27.290  33.030
   H    69.410  27.020  32.820
   H    67.090  25.170  34.080
   H    66.680  26.530  35.280
   H    67.360  25.100  35.830
   H    70.810  25.890  34.740
   H    69.800  24.940  33.690
   H    69.960  24.730  35.460
   H    69.250  29.320  37.910
   H    70.280  30.360  36.990
   H    68.740  30.030  36.330
   H    71.980  28.580  36.990
   H    71.910  27.290  36.000
   H    71.180  27.110  37.500
   H    70.940  28.330  34.070
   H    70.560  29.950  34.600
   H    69.010  33.170  30.240
   H    68.570  33.380  31.840
   H    72.260  32.790  33.110
   H    71.190  31.510  32.860
   H    70.560  32.800  33.780
   H    73.060  33.480  28.480
   H    72.620  30.940  28.360
   H    71.250  31.240  27.320
   H    74.870  32.300  27.700
   H    74.910  30.530  27.210
   H    75.310  31.870  26.130
   H    73.860  30.190  24.830
   H    72.130  30.380  24.970
   H    73.190  29.460  26.210
   H    74.230  35.000  25.160
   H    73.080  36.090  25.980
   H    73.980  35.010  26.990
   H    71.140  35.600  25.060
   H    71.850  34.560  23.820
   H    70.490  33.940  24.630
   H    70.470  33.620  27.000
   H    71.370  34.920  27.630
   H    69.980  34.860  32.810
   H    69.830  35.260  31.220
   H    70.120  37.470  32.270
   H    70.620  36.640  33.730
   H    71.610  37.980  32.940
   H    72.510  37.410  28.340
   H    74.200  38.490  29.730
   H    73.210  39.960  29.960
   H    74.460  37.690  27.230
   H    75.860  38.680  27.520
   H    74.780  38.940  26.150
   H    74.800  41.510  27.210
   H    74.010  41.660  28.830
   H    75.440  40.760  28.700
   H    70.870  39.550  25.210
   H    69.750  38.790  26.210
   H    71.420  38.090  25.940
   H    70.750  41.710  26.360
   H    69.450  40.870  27.300
   H    70.620  41.710  28.130
   H    70.150  38.570  28.510
   H    70.930  39.780  29.430
   H    73.340  34.580  32.360
   H    72.400  35.050  33.780
   H    75.080  36.760  31.410
   H    75.510  37.860  32.700
   H    73.880  37.920  32.040
   H    72.950  37.830  36.980
   H    70.280  38.000  35.420
   H    71.490  39.110  35.170
   H    68.510  38.660  36.630
   H    69.030  40.170  35.710
   H    68.670  40.290  37.370
   H    72.140  40.370  37.980
   H    71.530  41.140  36.480
   H    70.790  41.370  37.910
   H    72.480  37.480  39.670
   H    71.060  37.560  40.610
   H    71.740  35.960  40.220
   H    68.720  36.220  37.860
   H    69.360  35.360  39.290
   H    68.700  36.870  39.530
   H    70.610  35.900  36.670
   H    72.050  35.660  37.500
   H    75.420  34.560  33.050
   H    76.230  35.910  33.570
   H    77.570  34.410  34.650
   H    76.650  33.110  34.210
   H    77.010  33.310  35.940
   H    77.110  36.800  38.490
   H    74.330  37.450  38.710
   H    75.540  38.390  37.730
   H    77.190  40.400  40.170
   H    76.330  40.560  38.780
   H    77.670  39.370  38.960
   H    73.870  38.690  41.060
   H    73.930  39.950  39.720
   H    74.740  40.050  41.320
   H    75.330  35.270  42.610
   H    74.220  36.340  41.830
   H    75.350  37.050  42.910
   H    78.170  35.740  40.540
   H    77.330  34.830  41.770
   H    78.170  36.330  42.150
   H    74.740  35.470  40.010
   H    76.240  34.620  39.690
   H    73.600  34.680  36.300
   H    73.700  33.770  34.860
   H    75.980  32.910  37.860
   H    74.520  33.510  38.580
   H    74.970  31.860  38.570
   H    75.670  29.810  33.970
   H    72.860  30.100  32.800
   H    73.120  29.250  34.250
   H    72.710  26.900  31.150
   H    72.610  28.610  30.790
   H    71.820  28.120  32.120
   H    75.210  27.300  33.860
   H    73.550  26.610  33.800
   H    74.810  26.240  32.590
   H    75.970  29.570  29.070
   H    74.560  30.550  29.600
   H    76.230  31.170  29.750
   H    77.690  29.530  32.350
   H    77.910  30.180  30.700
   H    77.590  28.450  31.010
   H    74.660  31.550  31.800
   H    76.280  31.540  32.390
   H    72.080  33.170  37.300
   H    72.180  32.340  35.830
   H    72.510  31.440  37.320
  