239
PTMA_CHAIN4_time5
 C    99.350  97.130  20.690
   C    98.580  95.840  20.450
   C    97.580  96.060  19.260
   C    97.760  95.540  21.740
   O    96.550  95.390  21.700
   O    98.500  95.370  22.840
   C    97.840  94.760  23.990
   C    98.950  94.200  24.860
   C    98.530  93.860  26.280
   C    98.920  92.350  26.610
   C    99.320  94.680  27.240
   N    97.070  94.080  26.480
   H    96.500  93.480  27.180
   C    96.400  95.290  25.840
   C    95.010  94.840  25.330
   C    96.260  96.310  26.880
   C    97.200  95.870  24.750
   C    99.600  94.750  20.190
   C    99.150  93.340  19.840
   C    98.090  92.730  20.790
   C    98.670  93.350  18.370
   O    97.640  92.770  18.040
   O    99.600  93.730  17.530
   C    99.560  93.450  16.150
   C    99.260  94.710  15.400
   C    99.140  94.510  13.880
   C    97.750  94.030  13.450
   C    99.510  95.820  13.060
   N    100.070  93.430  13.450
   H    100.220  93.240  12.390
   C    101.050  92.720  14.330
   C    100.800  91.190  14.190
   C    102.440  92.970  13.730
   C    101.000  93.130  15.760
   C    100.450  92.470  19.830
   C    100.460  90.900  19.720
   C    100.340  90.390  21.170
   C    101.860  90.610  19.150
   O    102.190  90.290  17.950
   O    102.760  90.860  20.050
   C    104.130  91.060  19.680
   C    104.900  90.710  20.940
   C    106.400  90.930  20.710
   C    106.990  89.700  20.060
   C    107.170  91.200  22.040
   N    106.780  92.000  19.830
   H    107.830  92.300  19.830
   C    105.830  92.770  18.990
   C    106.110  92.270  17.520
   C    106.180  94.230  19.190
   C    104.400  92.490  19.410
   C    99.360  90.230  18.790
   C    99.310  88.740  18.190
   C    100.220  88.600  16.940
   C    99.730  87.570  19.100
   O    99.160  86.510  19.050
   O    100.900  87.820  19.590
   C    101.670  86.840  20.280
   C    103.080  87.220  20.290
   C    103.960  86.150  20.990
   C    105.230  86.840  21.330
   C    104.300  84.860  20.130
   N    103.350  85.670  22.230
   H    103.950  85.280  23.050
   C    101.870  85.580  22.380
   C    101.350  84.260  21.890
   C    101.550  85.660  23.880
   C    101.120  86.680  21.670
   C    97.880  88.470  17.580
   C    96.540  88.330  18.350
   C    95.620  87.330  17.670
   C    96.710  87.800  19.830
   O    96.340  86.710  20.190
   O    97.130  88.720  20.680
   C    96.770  88.570  22.050
   C    97.960  88.120  22.770
   C    97.700  87.770  24.230
   C    97.160  86.380  24.260
   C    99.010  87.700  25.100
   N    96.720  88.670  24.860
   H    96.480  88.530  25.910
   C    95.890  89.640  24.120
   C    95.830  91.010  24.820
   C    94.440  89.060  24.150
   C    96.320  89.830  22.670
   C    95.770  89.730  18.430
   C    95.040  90.440  17.190
   C    95.760  90.440  15.820
   C    94.770  91.900  17.600
   O    94.790  92.290  18.800
   O    94.400  92.660  16.510
   C    94.170  94.060  16.690
   C    94.510  94.930  15.500
   C    94.370  96.470  15.740
   C    94.130  97.210  14.390
   C    95.830  97.000  16.110
   N    93.370  96.850  16.820
   O    93.190  98.050  17.040
   C    92.580  95.780  17.550
   C    91.060  96.170  17.510
   C    92.920  95.900  19.020
   C    92.740  94.350  16.920
   C    93.640  89.810  16.990
   H    99.840  97.620  19.850
   H    98.610  97.870  21.000
   H    100.070  97.040  21.500
   H    98.140  96.330  18.360
   H    96.910  96.910  19.340
   H    96.960  95.190  19.020
   H    97.130  94.010  23.640
   H    99.530  93.400  24.380
   H    99.760  94.930  24.950
   H    98.250  91.700  26.050
   H    98.860  92.080  27.670
   H    99.870  92.060  26.160
   H    98.870  94.650  28.240
   H    99.370  95.740  26.980
   H    100.310  94.250  27.360
   H    94.410  94.490  26.170
   H    94.450  95.650  24.860
   H    95.120  94.150  24.500
   H    97.200  96.640  27.330
   H    95.610  95.900  27.660
   H    95.820  97.250  26.550
   H    97.930  96.530  25.210
   H    96.540  96.440  24.090
   H    100.310  95.150  19.460
   H    100.210  94.690  21.100
   H    97.870  91.680  20.610
   H    97.110  93.190  20.680
   H    98.300  92.740  21.860
   H    98.800  92.680  15.990
   H    98.380  95.210  15.810
   H    100.060  95.450  15.510
   H    97.300  93.270  14.090
   H    97.100  94.910  13.480
   H    97.660  93.660  12.430
   H    99.300  95.760  11.990
   H    100.580  96.040  13.140
   H    98.960  96.680  13.420
   H    101.570  90.570  14.640
   H    99.830  90.880  14.580
   H    100.770  90.940  13.130
   H    102.610  92.340  12.860
   H    102.620  94.010  13.450
   H    103.290  92.810  14.390
   H    101.660  93.980  15.910
   H    101.380  92.370  16.450
   H    100.880  92.620  20.820
   H    101.130  92.950  19.130
   H    101.170  90.620  21.840
   H    99.460  90.730  21.710
   H    100.350  89.310  21.290
   H    104.490  90.410  18.880
   H    104.730  89.660  21.170
   H    104.520  91.240  21.810
   H    108.020  89.850  19.750
   H    106.440  89.230  19.240
   H    107.050  88.960  20.860
   H    107.340  92.250  22.290
   H    106.650  90.730  22.880
   H    108.180  90.810  21.920
   H    105.990  91.190  17.600
   H    107.140  92.470  17.210
   H    105.330  92.550  16.820
   H    105.380  94.960  19.070
   H    106.600  94.450  20.170
   H    106.980  94.570  18.540
   H    103.810  92.730  18.520
   H    104.040  93.100  20.240
   H    99.270  90.880  17.920
   H    98.410  90.280  19.330
   H    100.260  89.490  16.310
   H    99.920  87.740  16.340
   H    101.240  88.310  17.190
   H    101.550  85.920  19.700
   H    103.140  88.180  20.800
   H    103.460  87.370  19.280
   H    105.760  87.100  20.410
   H    105.870  86.220  21.970
   H    105.020  87.720  21.940
   H    105.340  84.540  20.180
   H    103.790  83.950  20.450
   H    104.180  84.920  19.040
   H    100.260  84.130  21.960
   H    101.580  84.120  20.840
   H    101.810  83.440  22.440
   H    102.120  86.450  24.370
   H    100.480  85.800  24.020
   H    101.760  84.750  24.430
   H    101.130  87.580  22.280
   H    100.080  86.370  21.640
   H    97.780  89.170  16.760
   H    97.860  87.510  17.080
   H    95.300  87.580  16.660
   H    94.760  87.160  18.320
   H    96.160  86.390  17.590
   H    96.040  87.760  22.170
   H    98.740  88.870  22.660
   H    98.230  87.200  22.270
   H    97.890  85.670  23.880
   H    96.340  86.210  23.560
   H    96.850  86.110  25.270
   H    99.070  86.760  25.650
   H    98.990  88.520  25.820
   H    99.910  87.920  24.530
   H    95.710  91.020  25.900
   H    94.990  91.580  24.420
   H    96.660  91.590  24.430
   H    93.810  89.550  23.410
   H    93.940  89.190  25.110
   H    94.350  88.010  23.860
   H    97.200  90.480  22.660
   H    95.560  90.340  22.090
   H    94.990  89.720  19.190
   H    96.480  90.410  18.910
   H    95.930  89.450  15.380
   H    95.210  90.970  15.050
   H    96.730  90.930  15.940
   H    94.710  94.460  17.550
   H    93.960  94.510  14.660
   H    95.520  94.700  15.140
   H    93.320  96.700  13.870
   H    95.040  97.180  13.790
   H    93.890  98.260  14.570
   H    95.890  98.070  15.940
   H    95.990  96.750  17.160
   H    96.580  96.470  15.520
   H    90.460  95.440  18.050
   H    90.930  97.180  17.910
   H    90.770  96.140  16.460
   H    92.030  95.790  19.630
   H    93.390  96.850  19.230
   H    93.600  95.130  19.390
   H    92.170  94.250  16.000
   H    92.420  93.590  17.630
   H    93.200  89.790  17.990
   H    93.030  90.510  16.420
   H    93.630  88.850  16.480
  