239
PTMA_CHAIN7_time0point0005
 C    102.760  11.190  16.100
   C    102.610  12.690  16.470
   C    103.560  12.950  17.650
   C    101.150  12.850  16.930
   O    100.820  13.040  18.110
   O    100.280  12.600  15.930
   C    98.920  12.260  16.300
   C    98.060  13.490  16.570
   C    96.630  13.070  17.030
   C    96.680  12.890  18.570
   C    95.690  14.270  16.720
   N    96.250  11.750  16.440
   O    94.830  11.550  16.510
   C    96.770  11.430  15.100
   C    96.400  9.960  14.710
   C    96.270  12.340  13.960
   C    98.330  11.460  15.130
   C    102.940  13.520  15.190
   C    103.370  15.040  15.250
   C    102.320  15.830  16.030
   C    104.780  15.160  15.880
   O    105.070  15.940  16.770
   O    105.660  14.310  15.270
   C    107.080  14.430  15.560
   C    107.560  13.310  16.470
   C    108.270  12.130  15.750
   C    108.750  11.140  16.860
   C    107.220  11.320  14.930
   N    109.310  12.580  14.770
   O    110.630  12.200  15.160
   C    109.270  13.990  14.300
   C    110.070  15.010  15.170
   C    109.840  14.030  12.860
   C    107.810  14.470  14.200
   C    103.500  15.530  13.750
   C    103.490  17.050  13.240
   C    102.010  17.460  13.060
   C    104.230  16.890  11.890
   O    105.430  16.650  11.820
   O    103.400  16.910  10.800
   C    104.000  16.510  9.540
   C    104.850  17.620  8.930
   C    105.500  17.180  7.590
   C    106.670  16.220  7.890
   C    106.110  18.480  6.980
   N    104.450  16.660  6.670
   O    105.040  16.190  5.440
   C    103.440  15.720  7.180
   C    103.880  14.240  7.300
   C    102.200  15.750  6.220
   C    102.890  16.190  8.560
   C    104.230  18.070  14.200
   C    104.900  19.440  13.800
   C    105.980  19.260  12.710
   C    104.070  20.610  13.230
   O    104.450  21.770  13.330
   O    103.030  20.210  12.450
   C    102.460  21.230  11.590
   C    101.960  20.600  10.290
   C    100.430  20.700  10.020
   C    99.660  19.670  10.890
   C    100.210  20.210  8.560
   N    99.860  22.040  10.340
   O    99.490  22.800  9.180
   C    100.560  22.890  11.340
   C    101.490  23.980  10.750
   C    99.470  23.610  12.180
   C    101.390  22.030  12.330
   C    105.730  19.990  15.040
   C    105.140  20.440  16.430
   C    106.080  21.570  16.950
   C    103.770  21.160  16.330
   O    103.650  22.350  16.040
   O    102.720  20.370  16.690
   C    101.620  21.080  17.310
   C    100.550  21.490  16.300
   C    99.480  22.380  17.000
   C    99.980  23.860  16.900
   C    98.170  22.290  16.180
   N    99.380  22.050  18.450
   O    98.180  22.600  19.040
   C    99.600  20.640  18.860
   C    98.530  19.650  18.350
   C    99.640  20.520  20.410
   C    101.000  20.170  18.360
   C    105.070  19.290  17.520
   C    106.300  18.780  18.370
   C    107.460  18.320  17.480
   C    105.820  17.640  19.300
   O    104.720  17.630  19.850
   O    106.820  16.760  19.570
   C    106.670  15.870  20.720
   C    107.310  14.540  20.360
   C    107.420  13.580  21.590
   C    108.460  12.500  21.180
   C    106.060  12.870  21.770
   N    107.680  14.310  22.860
   O    108.370  13.480  23.820
   C    108.270  15.660  22.780
   C    109.710  15.710  22.210
   C    108.330  16.330  24.180
   C    107.320  16.550  21.930
   C    106.810  19.840  19.380
   H    103.790  10.940  15.870
   H    102.450  10.540  16.920
   H    102.140  10.930  15.240
   H    104.590  12.740  17.370
   H    103.330  12.290  18.490
   H    103.490  13.970  18.040
   H    98.950  11.610  17.170
   H    98.540  14.140  17.300
   H    98.040  14.100  15.670
   H    97.320  12.060  18.880
   H    95.680  12.690  18.970
   H    97.060  13.790  19.050
   H    96.090  15.190  17.140
   H    94.700  14.160  17.170
   H    95.570  14.450  15.650
   H    95.340  9.860  14.500
   H    96.930  9.650  13.810
   H    96.690  9.260  15.490
   H    96.640  13.360  14.070
   H    95.190  12.360  13.880
   H    96.650  11.970  13.000
   H    98.710  11.870  14.200
   H    98.760  10.460  15.190
   H    103.720  12.990  14.650
   H    102.070  13.460  14.530
   H    102.570  16.890  16.110
   H    102.210  15.470  17.050
   H    101.350  15.760  15.540
   H    107.250  15.380  16.070
   H    108.260  13.740  17.180
   H    106.730  12.930  17.060
   H    109.460  11.640  17.520
   H    107.900  10.810  17.460
   H    109.220  10.260  16.430
   H    107.670  10.440  14.460
   H    106.760  11.900  14.130
   H    106.410  10.950  15.570
   H    109.890  16.030  14.820
   H    109.800  14.970  16.220
   H    111.150  14.850  15.100
   H    110.910  13.800  12.850
   H    109.330  13.330  12.200
   H    109.730  15.010  12.410
   H    107.260  13.880  13.470
   H    107.770  15.490  13.830
   H    102.730  15.040  13.160
   H    104.410  15.070  13.360
   H    101.560  17.740  14.020
   H    101.880  18.300  12.380
   H    101.420  16.650  12.650
   H    104.580  15.600  9.720
   H    105.630  17.950  9.620
   H    104.220  18.500  8.790
   H    107.230  15.940  7.000
   H    106.350  15.300  8.380
   H    107.390  16.680  8.570
   H    105.320  19.190  6.730
   H    106.780  18.960  7.700
   H    106.680  18.260  6.080
   H    103.050  13.620  7.650
   H    104.700  14.090  8.010
   H    104.190  13.820  6.340
   H    101.840  16.770  6.080
   H    102.450  15.350  5.240
   H    101.390  15.150  6.620
   H    102.230  15.430  8.990
   H    102.270  17.080  8.440
   H    105.030  17.490  14.670
   H    103.540  18.310  15.010
   H    106.640  18.430  12.960
   H    106.620  20.130  12.630
   H    105.550  19.120  11.720
   H    103.270  21.910  11.300
   H    102.250  19.550  10.230
   H    102.480  21.110  9.480
   H    100.050  18.660  10.710
   H    98.600  19.670  10.640
   H    99.750  19.880  11.950
   H    99.150  20.200  8.300
   H    100.720  20.830  7.830
   H    100.580  19.190  8.440
   H    102.060  24.470  11.530
   H    102.200  23.560  10.030
   H    100.930  24.760  10.230
   H    98.780  22.910  12.640
   H    99.910  24.210  12.980
   H    98.870  24.310  11.580
   H    100.760  21.360  12.910
   H    101.880  22.660  13.070
   H    106.510  19.250  15.270
   H    106.280  20.850  14.660
   H    107.120  21.250  16.970
   H    105.780  21.920  17.940
   H    106.060  22.440  16.300
   H    102.010  21.980  17.800
   H    100.110  20.590  15.880
   H    101.010  22.020  15.460
   H    100.120  24.140  15.850
   H    100.900  24.010  17.440
   H    99.250  24.560  17.310
   H    98.370  22.480  15.120
   H    97.420  23.000  16.510
   H    97.730  21.290  16.230
   H    97.530  19.940  18.650
   H    98.720  18.650  18.750
   H    98.540  19.540  17.270
   H    100.340  21.220  20.860
   H    99.940  19.510  20.700
   H    98.670  20.700  20.870
   H    100.960  19.140  17.990
   H    101.710  20.110  19.190
   H    104.330  19.600  18.250
   H    104.620  18.420  17.040
   H    107.880  19.140  16.900
   H    108.280  17.890  18.060
   H    107.130  17.570  16.770
   H    105.610  15.690  20.910
   H    108.290  14.740  19.920
   H    106.740  14.080  19.560
   H    109.450  12.930  21.080
   H    108.220  12.080  20.200
   H    108.490  11.680  21.890
   H    106.110  12.120  22.560
   H    105.280  13.590  22.020
   H    105.750  12.350  20.860
   H    110.090  16.730  22.220
   H    110.400  15.110  22.810
   H    109.770  15.360  21.180
   H    108.620  17.380  24.090
   H    109.060  15.870  24.840
   H    107.370  16.290  24.700
   H    107.850  17.460  21.640
   H    106.510  16.910  22.560
   H    105.990  20.370  19.850
   H    107.410  19.390  20.180
   H    107.490  20.560  18.910
  