239
PTMA_CHAIN5_time0point005
 C    90.450  63.980  70.160
   C    91.240  65.160  69.520
   C    90.230  66.300  69.230
   C    91.760  64.610  68.160
   O    91.310  64.960  67.070
   O    92.690  63.530  68.350
   C    92.860  62.690  67.250
   C    93.880  63.210  66.270
   C    94.040  62.210  65.090
   C    93.060  62.570  64.000
   C    95.460  62.480  64.470
   N    93.780  60.800  65.530
   H    94.150  60.100  64.780
   C    94.140  60.440  66.900
   C    93.650  58.990  67.210
   C    95.590  60.440  67.180
   C    93.330  61.360  67.870
   C    92.390  65.640  70.500
   C    93.070  67.000  70.460
   C    93.620  67.210  69.040
   C    92.100  68.110  70.920
   O    91.920  69.140  70.280
   O    91.490  67.770  72.080
   C    90.680  68.730  72.740
   C    89.170  68.480  72.630
   C    88.570  67.730  73.830
   C    87.040  67.650  73.550
   C    89.020  66.280  73.900
   N    88.820  68.430  75.160
   O    87.840  68.960  75.790
   C    90.130  69.240  75.240
   C    89.840  70.760  74.920
   C    90.700  69.150  76.640
   C    91.220  68.770  74.240
   C    94.220  66.970  71.500
   C    95.480  67.930  71.610
   C    96.550  67.300  70.700
   C    95.810  67.790  73.100
   O    95.140  68.270  74.000
   O    96.870  66.980  73.350
   C    97.160  66.570  74.770
   C    97.800  67.750  75.550
   C    98.010  67.400  77.000
   C    96.590  67.390  77.740
   C    98.850  68.500  77.660
   N    98.720  66.070  77.160
   H    99.030  65.840  78.180
   C    98.360  64.960  76.260
   C    97.090  64.110  76.730
   C    99.520  63.980  76.140
   C    98.100  65.420  74.820
   C    95.200  69.430  71.200
   C    95.930  70.770  71.670
   C    95.980  70.880  73.250
   C    97.450  70.940  71.350
   O    97.950  72.120  71.280
   O    98.180  69.780  71.320
   C    99.660  69.980  71.360
   C    100.290  68.740  72.100
   C    101.220  67.870  71.240
   C    100.440  66.970  70.310
   C    101.940  66.890  72.260
   N    102.230  68.670  70.460
   O    103.460  68.650  70.850
   C    101.750  70.030  69.920
   C    102.400  71.230  70.810
   C    102.280  70.210  68.470
   C    100.260  70.230  69.970
   C    95.210  72.030  71.200
   C    94.900  72.410  69.700
   C    94.870  73.990  69.770
   C    96.090  72.140  68.780
   O    97.060  72.920  68.650
   O    95.860  71.100  67.980
   C    96.510  71.240  66.690
   C    97.810  70.570  66.570
   C    98.540  70.830  65.280
   C    99.330  72.210  65.280
   C    99.600  69.810  64.990
   N    97.530  70.970  64.120
   H    98.030  71.000  63.160
   C    96.280  70.220  64.280
   C    96.450  68.620  64.140
   C    95.240  70.670  63.170
   C    95.620  70.540  65.690
   C    93.550  71.890  69.110
   C    92.110  72.480  69.370
   C    91.740  72.570  70.870
   C    91.030  71.650  68.610
   O    91.280  71.200  67.470
   O    89.860  71.580  69.210
   C    88.680  71.250  68.450
   C    87.760  70.490  69.400
   C    86.410  70.230  68.710
   C    85.380  69.920  69.930
   C    86.480  68.980  67.870
   N    85.830  71.380  67.830
   O    84.570  71.440  67.730
   C    86.570  72.690  68.060
   C    86.200  73.360  69.390
   C    86.060  73.660  66.950
   C    88.090  72.560  67.860
   C    91.910  73.930  68.830
   H    89.910  64.280  71.050
   H    89.790  63.540  69.400
   H    91.060  63.100  70.360
   H    89.760  66.680  70.130
   H    89.490  66.020  68.470
   H    90.720  67.150  68.760
   H    91.910  62.580  66.730
   H    93.710  64.220  65.890
   H    94.840  63.380  66.760
   H    92.040  62.520  64.390
   H    93.160  62.020  63.060
   H    93.070  63.610  63.650
   H    95.590  63.530  64.220
   H    95.650  61.960  63.530
   H    96.320  62.350  65.120
   H    94.150  58.270  66.570
   H    93.630  58.870  68.300
   H    92.580  58.930  67.000
   H    95.970  61.460  67.070
   H    96.280  59.790  66.640
   H    95.590  60.080  68.210
   H    93.920  61.700  68.730
   H    92.460  60.880  68.320
   H    91.990  65.460  71.500
   H    93.160  64.870  70.400
   H    94.150  68.150  68.930
   H    92.750  67.230  68.380
   H    94.280  66.400  68.730
   H    90.940  69.750  72.450
   H    88.810  69.500  72.510
   H    88.930  67.910  71.730
   H    86.670  68.680  73.630
   H    86.830  67.150  72.600
   H    86.500  67.050  74.280
   H    88.550  65.730  74.710
   H    90.090  66.150  74.070
   H    88.820  65.740  72.970
   H    90.740  71.360  74.760
   H    89.320  70.980  73.990
   H    89.200  71.240  75.660
   H    90.130  69.650  77.420
   H    90.800  68.090  76.890
   H    91.590  69.770  76.790
   H    91.460  67.780  74.630
   H    92.140  69.350  74.330
   H    94.550  65.930  71.550
   H    93.790  67.050  72.500
   H    96.350  67.610  69.680
   H    97.530  67.670  71.010
   H    96.610  66.210  70.650
   H    96.150  66.320  75.100
   H    97.100  68.580  75.580
   H    98.720  68.090  75.070
   H    96.730  67.160  78.800
   H    95.760  66.810  77.340
   H    96.220  68.390  77.540
   H    99.830  68.380  77.220
   H    98.500  69.520  77.480
   H    98.950  68.430  78.750
   H    96.980  63.280  76.040
   H    96.170  64.690  76.670
   H    97.270  63.530  77.640
   H    100.420  64.430  75.730
   H    99.810  63.460  77.060
   H    99.150  63.250  75.420
   H    97.630  64.550  74.360
   H    99.060  65.580  74.330
   H    94.170  69.640  71.500
   H    95.230  69.510  70.110
   H    94.930  70.730  73.490
   H    96.450  71.770  73.660
   H    96.700  70.180  73.690
   H    99.820  70.890  71.930
   H    99.490  68.100  72.450
   H    100.850  69.180  72.920
   H    99.720  66.460  70.950
   H    101.120  66.240  69.880
   H    99.850  67.460  69.520
   H    102.650  66.240  71.740
   H    102.420  67.320  73.140
   H    101.240  66.230  72.770
   H    101.880  72.130  70.480
   H    102.350  71.080  71.890
   H    103.410  71.520  70.510
   H    101.780  69.440  67.890
   H    101.880  71.160  68.110
   H    103.370  70.220  68.510
   H    99.720  69.640  69.240
   H    99.960  71.190  69.560
   H    94.230  71.820  71.620
   H    95.580  72.910  71.740
   H    94.020  74.330  70.370
   H    94.560  74.260  68.770
   H    95.850  74.410  70.000
   H    96.360  72.280  66.400
   H    97.750  69.490  66.760
   H    98.590  70.790  67.300
   H    100.110  72.270  66.040
   H    98.620  72.990  65.540
   H    99.710  72.490  64.310
   H    100.190  69.840  65.910
   H    100.130  70.150  64.100
   H    99.210  68.810  64.820
   H    96.900  68.240  63.220
   H    95.500  68.090  64.170
   H    97.050  68.160  64.920
   H    94.920  71.710  63.190
   H    94.320  70.090  63.260
   H    95.640  70.350  62.210
   H    95.350  69.550  66.070
   H    94.700  71.070  65.450
   H    93.570  72.060  68.040
   H    93.500  70.810  69.280
   H    92.340  73.270  71.460
   H    90.690  72.760  71.060
   H    91.980  71.580  71.270
   H    89.030  70.540  67.710
   H    87.590  71.000  70.350
   H    88.230  69.560  69.720
   H    85.270  70.750  70.630
   H    85.800  69.120  70.540
   H    84.460  69.530  69.500
   H    85.520  68.630  67.490
   H    87.050  69.110  66.940
   H    86.810  68.050  68.320
   H    86.560  74.390  69.500
   H    85.120  73.520  69.410
   H    86.600  73.080  70.360
   H    86.650  74.590  66.920
   H    85.070  74.100  66.990
   H    86.270  73.210  65.990
   H    88.560  73.460  68.260
   H    88.410  72.510  66.820
   H    92.450  74.080  67.900
   H    90.880  74.250  68.650
   H    92.210  74.730  69.500
  