239
PTMA_CHAIN6_time6
 C    61.360  30.720  30.960
   C    62.860  30.450  31.310
   C    63.490  29.940  29.990
   C    62.930  29.290  32.300
   O    63.180  28.160  31.940
   O    62.690  29.650  33.640
   C    62.530  28.620  34.600
   C    63.070  29.190  35.910
   C    63.270  28.080  36.900
   C    64.500  27.070  36.680
   C    63.370  28.630  38.310
   N    62.090  27.210  36.890
   H    62.190  26.460  37.670
   C    61.030  27.100  35.810
   C    61.060  25.800  34.960
   C    59.660  27.100  36.480
   C    61.050  28.310  34.900
   C    63.430  31.750  31.900
   C    64.960  32.020  32.200
   C    65.370  31.030  33.330
   C    65.850  31.890  30.950
   O    66.780  31.180  31.040
   O    65.420  32.410  29.800
   C    66.200  32.510  28.640
   C    66.090  31.210  27.880
   C    66.860  31.170  26.590
   C    68.340  30.930  26.790
   C    66.290  29.990  25.670
   N    66.760  32.450  25.880
   H    67.050  32.470  24.830
   C    66.420  33.670  26.570
   C    67.670  34.470  26.910
   C    65.600  34.490  25.550
   C    65.470  33.480  27.750
   C    65.030  33.450  32.740
   C    66.390  34.280  32.930
   C    65.870  35.370  33.910
   C    66.740  34.940  31.580
   O    67.450  34.350  30.770
   O    66.590  36.230  31.500
   C    67.160  36.980  30.410
   C    68.540  37.490  30.640
   C    69.220  38.150  29.520
   C    69.960  37.070  28.700
   C    70.170  39.200  30.140
   N    68.210  38.850  28.590
   H    68.570  39.210  27.630
   C    66.760  38.890  28.910
   C    65.970  38.470  27.650
   C    66.470  40.370  29.060
   C    66.300  38.220  30.180
   C    67.530  33.500  33.750
   C    68.870  34.160  34.140
   C    69.400  35.290  33.270
   C    68.670  34.840  35.550
   O    69.590  35.560  35.960
   O    67.610  34.520  36.280
   C    67.380  35.040  37.580
   C    66.880  36.460  37.470
   C    66.590  37.060  38.740
   C    65.450  38.110  38.620
   C    67.750  37.840  39.340
   N    66.020  36.100  39.730
   H    65.880  36.400  40.770
   C    65.700  34.720  39.370
   C    66.000  33.860  40.520
   C    64.230  34.740  39.070
   C    66.470  34.090  38.150
   C    70.010  32.990  34.300
   C    70.160  32.080  35.540
   C    71.000  30.880  34.900
   C    71.050  32.770  36.600
   O    72.170  33.210  36.300
   O    70.420  33.070  37.790
   C    71.140  33.500  38.990
   C    70.930  35.010  39.170
   C    71.780  35.450  40.340
   C    73.300  35.530  40.110
   C    71.350  36.890  40.720
   N    71.590  34.620  41.570
   H    71.640  35.150  42.520
   C    71.380  33.130  41.460
   C    70.550  32.740  42.700
   C    72.790  32.560  41.540
   C    70.630  32.750  40.210
   C    68.770  31.500  36.100
   C    68.590  30.240  36.950
   C    69.320  30.300  38.340
   C    68.850  28.910  36.220
   O    69.430  27.950  36.800
   O    68.470  28.930  34.900
   C    68.720  27.920  33.970
   C    67.530  26.990  33.970
   C    67.460  25.890  32.980
   C    66.050  25.380  32.870
   C    68.420  24.650  33.410
   N    67.960  26.250  31.590
   O    67.520  25.650  30.630
   C    68.870  27.480  31.410
   C    68.360  28.200  30.140
   C    70.310  27.040  31.120
   C    68.800  28.500  32.580
   C    67.060  30.210  37.270
   H    61.320  31.470  30.160
   H    60.870  29.800  30.640
   H    60.840  31.310  31.720
   H    64.450  29.460  30.160
   H    63.630  30.810  29.340
   H    62.840  29.160  29.600
   H    63.120  27.780  34.240
   H    64.020  29.690  35.680
   H    62.460  30.050  36.170
   H    65.010  26.820  37.610
   H    65.290  27.380  36.000
   H    64.150  26.090  36.360
   H    63.070  27.880  39.040
   H    62.770  29.540  38.360
   H    64.370  28.960  38.570
   H    62.030  25.730  34.460
   H    61.010  24.910  35.580
   H    60.240  25.850  34.250
   H    59.470  26.030  36.620
   H    58.880  27.530  35.860
   H    59.650  27.540  37.470
   H    60.520  29.080  35.470
   H    60.570  28.220  33.930
   H    63.240  32.510  31.150
   H    62.850  32.100  32.750
   H    66.420  31.140  33.590
   H    65.260  30.010  32.970
   H    64.800  31.100  34.250
   H    67.210  32.860  28.840
   H    66.480  30.510  28.630
   H    65.080  30.880  27.640
   H    68.500  30.130  27.510
   H    68.870  30.680  25.880
   H    68.740  31.830  27.250
   H    66.300  29.100  26.300
   H    66.930  29.860  24.790
   H    65.260  30.120  25.360
   H    68.270  34.150  27.770
   H    68.370  34.510  26.080
   H    67.340  35.430  27.310
   H    64.680  33.980  25.250
   H    65.310  35.450  25.970
   H    66.140  34.710  24.630
   H    64.470  33.210  27.410
   H    65.340  34.410  28.290
   H    64.570  33.430  33.730
   H    64.350  34.060  32.150
   H    66.510  36.250  34.050
   H    65.050  35.940  33.480
   H    65.560  35.070  34.910
   H    67.070  36.350  29.520
   H    69.230  36.770  31.090
   H    68.400  38.150  31.500
   H    70.950  36.810  29.070
   H    70.010  37.280  27.630
   H    69.350  36.180  28.820
   H    70.520  39.990  29.470
   H    69.650  39.760  30.920
   H    71.020  38.600  30.470
   H    65.940  37.380  27.610
   H    66.330  38.970  26.750
   H    64.890  38.570  27.700
   H    66.610  40.890  28.110
   H    65.470  40.480  29.460
   H    67.230  40.910  29.620
   H    65.290  37.800  30.140
   H    66.180  38.930  31.000
   H    67.840  32.630  33.170
   H    67.020  32.930  34.530
   H    69.700  34.900  32.300
   H    70.300  35.800  33.600
   H    68.690  36.110  33.120
   H    68.290  34.890  38.170
   H    66.010  36.540  36.820
   H    67.530  37.150  36.920
   H    64.570  37.690  38.150
   H    65.680  38.960  37.970
   H    65.250  38.460  39.630
   H    68.160  38.710  38.810
   H    67.640  38.140  40.380
   H    68.630  37.210  39.460
   H    65.580  34.110  41.490
   H    65.580  32.870  40.380
   H    67.070  33.820  40.690
   H    63.620  35.200  39.850
   H    64.020  35.180  38.090
   H    63.800  33.740  39.080
   H    65.730  33.670  37.470
   H    67.110  33.230  38.380
   H    69.970  32.460  33.340
   H    71.000  33.450  34.200
   H    71.940  31.120  34.400
   H    70.410  30.350  34.150
   H    71.400  30.090  35.530
   H    72.200  33.260  38.910
   H    69.850  35.140  39.250
   H    71.290  35.530  38.280
   H    73.670  34.500  40.120
   H    73.840  36.020  40.920
   H    73.510  35.930  39.120
   H    71.810  37.130  41.680
   H    70.270  36.870  40.660
   H    71.590  37.590  39.920
   H    70.960  33.020  43.670
   H    70.420  31.660  42.700
   H    69.520  33.100  42.590
   H    73.200  32.270  40.570
   H    72.790  31.580  42.010
   H    73.500  33.190  42.070
   H    69.560  32.880  40.330
   H    70.730  31.680  40.010
   H    68.280  32.370  36.540
   H    68.230  31.320  35.170
   H    69.090  29.410  38.930
   H    70.410  30.250  38.270
   H    68.990  31.200  38.860
   H    69.680  27.440  34.170
   H    66.610  27.580  33.910
   H    67.460  26.470  34.930
   H    65.670  25.080  33.850
   H    66.080  24.560  32.150
   H    65.260  26.040  32.530
   H    68.030  24.250  34.350
   H    68.340  23.770  32.770
   H    69.460  24.980  33.420
   H    67.280  28.250  30.010
   H    68.760  29.200  29.960
   H    68.600  27.560  29.300
   H    70.680  26.450  31.960
   H    71.110  27.780  30.990
   H    70.400  26.350  30.280
   H    67.880  29.050  32.410
   H    69.620  29.220  32.480
   H    66.400  29.860  36.480
   H    66.870  29.570  38.120
   H    66.770  31.230  37.540
  