239
PTMA_CHAIN10_time0point5
 C    87.010  79.040  69.030
   C    86.670  79.840  67.750
   C    87.900  80.800  67.540
   C    85.400  80.640  67.940
   O    85.390  81.840  67.910
   O    84.380  79.890  68.380
   C    83.590  80.370  69.430
   C    82.340  80.850  68.800
   C    81.370  81.450  69.790
   C    81.710  82.950  70.100
   C    79.990  81.430  69.080
   N    81.300  80.690  71.010
   H    81.300  81.310  71.910
   C    81.990  79.390  71.220
   C    82.510  79.310  72.710
   C    80.850  78.380  70.890
   C    83.250  79.190  70.310
   C    86.510  78.820  66.620
   C    86.460  79.290  65.100
   C    85.340  80.340  64.710
   C    87.840  79.770  64.550
   O    87.980  80.630  63.660
   O    88.800  79.050  65.120
   C    90.090  79.020  64.450
   C    91.090  79.140  65.560
   C    91.970  77.900  65.850
   C    93.160  78.410  66.690
   C    91.130  76.930  66.730
   N    92.440  77.340  64.590
   H    93.280  76.660  64.660
   C    91.680  77.380  63.340
   C    92.360  78.410  62.400
   C    91.790  76.120  62.540
   C    90.210  77.720  63.670
   C    86.120  77.890  64.400
   C    85.800  77.760  62.830
   C    84.210  77.980  62.750
   C    86.170  76.300  62.490
   O    87.330  75.880  62.670
   O    85.120  75.460  62.360
   C    85.300  74.050  62.310
   C    85.580  73.580  60.850
   C    85.530  72.100  60.660
   C    86.920  71.500  60.920
   C    85.140  71.930  59.170
   N    84.500  71.450  61.490
   H    83.860  70.700  61.050
   C    84.230  71.890  62.860
   C    85.190  71.170  63.790
   C    82.850  71.300  63.180
   C    84.160  73.370  62.950
   C    86.590  78.730  61.830
   C    86.820  78.560  60.230
   C    87.860  77.420  59.980
   C    85.680  78.270  59.260
   O    85.930  78.360  58.060
   O    84.630  77.740  59.780
   C    83.480  77.650  58.950
   C    82.860  76.360  59.500
   C    81.330  76.330  59.560
   C    80.730  76.540  60.910
   C    81.070  74.830  59.210
   N    80.800  77.340  58.580
   H    79.980  77.050  57.930
   C    81.360  78.690  58.400
   C    81.660  78.810  56.920
   C    80.400  79.870  58.660
   C    82.590  78.820  59.260
   C    87.660  79.790  59.760
   C    87.130  81.170  59.270
   C    87.430  81.300  57.790
   C    85.570  81.480  59.400
   O    84.810  81.670  58.410
   O    85.080  81.550  60.670
   C    84.210  82.640  61.100
   C    82.720  82.490  60.750
   C    81.760  83.620  61.330
   C    81.280  84.500  60.080
   C    80.600  82.980  62.020
   N    82.590  84.450  62.270
   H    82.720  85.490  61.950
   C    83.590  83.920  63.170
   C    82.870  83.800  64.510
   C    84.770  84.970  63.320
   C    84.180  82.600  62.590
   C    87.820  82.300  60.060
   C    89.220  82.820  59.830
   C    90.360  81.720  59.910
   C    89.480  83.830  60.950
   O    88.640  84.740  61.260
   O    90.450  83.510  61.780
   C    90.880  84.260  62.940
   C    91.120  83.180  64.010
   C    91.890  83.660  65.320
   C    92.590  82.430  65.910
   C    90.850  84.160  66.420
   N    92.820  84.750  65.000
   O    93.510  85.200  65.980
   C    92.890  85.530  63.730
   C    94.380  85.680  63.360
   C    92.460  87.000  63.940
   C    92.070  84.970  62.570
   C    89.430  83.650  58.610
   H    87.910  78.450  68.870
   H    87.140  79.780  69.830
   H    86.170  78.420  69.340
   H    88.750  80.190  67.220
   H    88.080  81.360  68.460
   H    87.690  81.560  66.790
   H    84.140  81.140  69.970
   H    82.680  81.620  68.110
   H    81.880  80.090  68.170
   H    82.650  83.120  70.630
   H    81.020  83.240  70.890
   H    81.730  83.560  69.200
   H    80.100  82.070  68.210
   H    79.160  81.870  69.630
   H    79.690  80.430  68.760
   H    81.730  79.510  73.440
   H    82.770  78.260  72.890
   H    83.440  79.850  72.880
   H    80.320  78.700  69.990
   H    80.060  78.340  71.630
   H    81.290  77.390  70.730
   H    83.010  78.390  69.620
   H    84.090  78.870  70.920
   H    87.290  78.070  66.740
   H    85.600  78.270  66.850
   H    85.420  80.590  63.650
   H    85.410  81.270  65.270
   H    84.320  79.990  64.860
   H    90.180  79.870  63.780
   H    91.700  79.930  65.110
   H    90.660  79.580  66.460
   H    93.810  79.120  66.180
   H    92.820  79.080  67.490
   H    93.760  77.580  67.060
   H    90.540  76.210  66.160
   H    90.420  77.420  67.390
   H    91.830  76.300  67.280
   H    91.660  78.620  61.590
   H    92.600  79.360  62.880
   H    93.310  78.020  62.040
   H    92.790  75.760  62.320
   H    91.300  75.360  63.150
   H    91.260  76.330  61.610
   H    89.900  76.860  64.270
   H    89.620  77.580  62.770
   H    85.410  77.290  64.970
   H    86.950  77.220  64.620
   H    83.920  79.030  62.660
   H    83.720  77.330  62.020
   H    83.790  77.430  63.590
   H    86.180  73.710  62.870
   H    86.570  73.960  60.590
   H    84.770  74.010  60.260
   H    86.860  70.490  61.320
   H    87.510  72.030  61.680
   H    87.550  71.520  60.040
   H    84.140  72.340  58.970
   H    85.800  72.540  58.560
   H    85.320  70.950  58.730
   H    85.070  71.420  64.840
   H    86.240  71.250  63.510
   H    84.950  70.110  63.700
   H    82.140  71.530  62.390
   H    82.930  70.230  63.300
   H    82.420  71.790  64.060
   H    84.060  73.620  64.010
   H    83.280  73.750  62.420
   H    87.600  78.600  62.210
   H    86.360  79.760  62.120
   H    88.750  77.570  60.590
   H    88.260  77.380  58.970
   H    87.460  76.440  60.220
   H    83.710  77.550  57.890
   H    83.360  76.130  60.440
   H    83.250  75.640  58.790
   H    80.650  75.600  61.460
   H    79.710  76.930  60.980
   H    81.290  77.230  61.550
   H    80.940  74.770  58.130
   H    81.930  74.230  59.520
   H    80.230  74.270  59.620
   H    82.460  79.530  56.740
   H    82.000  77.890  56.440
   H    80.760  79.070  56.360
   H    80.150  79.970  59.720
   H    80.970  80.770  58.440
   H    79.470  79.670  58.130
   H    82.350  78.790  60.320
   H    83.000  79.810  59.060
   H    88.320  80.030  60.580
   H    88.230  79.430  58.900
   H    88.430  81.080  57.420
   H    87.290  82.330  57.450
   H    86.710  80.700  57.240
   H    84.670  83.580  60.800
   H    82.400  81.470  60.990
   H    82.600  82.420  59.670
   H    80.930  83.880  59.250
   H    82.090  85.140  59.730
   H    80.470  85.060  60.540
   H    80.070  82.290  61.360
   H    79.950  83.720  62.480
   H    81.000  82.270  62.740
   H    82.390  84.740  64.780
   H    83.540  83.440  65.280
   H    82.040  83.090  64.470
   H    85.230  85.120  62.340
   H    85.510  84.640  64.040
   H    84.420  85.910  63.730
   H    83.620  81.740  62.950
   H    85.240  82.540  62.790
   H    87.100  83.110  59.910
   H    87.570  82.120  61.100
   H    90.330  81.080  59.030
   H    91.370  82.120  60.020
   H    90.280  81.070  60.790
   H    90.050  84.880  63.280
   H    91.730  82.420  63.520
   H    90.220  82.620  64.230
   H    93.040  81.720  65.210
   H    91.890  81.910  66.560
   H    93.470  82.840  66.380
   H    91.360  84.370  67.360
   H    90.150  84.950  66.140
   H    90.120  83.400  66.710
   H    94.630  86.420  62.610
   H    94.980  85.890  64.240
   H    94.730  84.760  62.900
   H    91.380  87.050  64.090
   H    92.710  87.550  63.030
   H    92.840  87.390  64.880
   H    92.730  84.250  62.080
   H    91.830  85.770  61.870
   H    88.710  84.460  58.460
   H    90.370  84.200  58.600
   H    89.490  83.030  57.710
  