239
PTMA_CHAIN10_time0point05
 C    87.130  79.180  68.470
   C    86.790  79.880  67.180
   C    87.940  80.900  66.940
   C    85.460  80.600  67.370
   O    85.430  81.810  67.530
   O    84.400  79.840  67.700
   C    83.340  80.380  68.470
   C    82.150  80.860  67.660
   C    81.160  81.560  68.600
   C    81.710  82.920  69.090
   C    79.720  81.870  67.910
   N    81.030  80.800  69.840
   H    80.130  81.060  70.400
   C    81.360  79.360  69.890
   C    81.180  78.970  71.380
   C    80.490  78.360  69.040
   C    82.820  79.300  69.460
   C    86.720  78.680  66.120
   C    86.690  78.920  64.570
   C    85.650  80.000  64.170
   C    88.090  79.300  64.030
   O    88.240  80.150  63.130
   O    88.960  78.360  64.520
   C    90.320  78.410  64.200
   C    91.190  79.030  65.350
   C    92.030  77.970  66.130
   C    93.210  78.530  66.930
   C    91.150  77.210  67.210
   N    92.700  77.080  65.190
   H    93.780  77.020  65.210
   C    92.170  76.800  63.840
   C    92.960  77.540  62.730
   C    92.590  75.390  63.730
   C    90.670  77.030  63.880
   C    86.170  77.540  63.940
   C    85.900  77.190  62.400
   C    84.280  77.350  62.280
   C    86.370  75.730  62.310
   O    87.550  75.430  62.370
   O    85.320  74.840  62.270
   C    85.660  73.460  62.330
   C    86.070  72.860  60.960
   C    86.420  71.320  61.100
   C    87.870  71.140  61.700
   C    86.430  70.800  59.680
   N    85.230  70.770  61.810
   H    85.100  69.700  61.710
   C    84.790  71.290  63.120
   C    85.690  70.860  64.330
   C    83.460  70.490  63.330
   C    84.480  72.760  62.950
   C    86.570  78.090  61.260
   C    86.760  77.800  59.690
   C    87.750  76.580  59.440
   C    85.570  77.600  58.780
   O    85.680  77.890  57.600
   O    84.510  76.850  59.280
   C    83.530  76.400  58.410
   C    82.930  75.210  59.210
   C    81.420  75.360  59.400
   C    81.130  76.180  60.700
   C    80.850  73.920  59.610
   N    80.690  76.040  58.270
   H    79.810  75.540  57.880
   C    81.440  76.860  57.250
   C    81.650  75.970  55.930
   C    80.380  77.910  56.910
   C    82.560  77.530  58.040
   C    87.680  78.990  59.200
   C    87.270  80.550  59.010
   C    87.970  81.050  57.710
   C    85.750  80.890  58.760
   O    85.280  80.990  57.600
   O    85.080  81.230  59.820
   C    84.050  82.150  59.680
   C    82.700  81.490  59.350
   C    81.690  82.450  58.920
   C    81.850  82.670  57.440
   C    80.240  81.890  59.180
   N    82.040  83.780  59.530
   H    81.340  84.570  59.270
   C    82.610  83.870  60.920
   C    81.650  83.380  62.050
   C    82.880  85.310  61.140
   C    83.870  83.010  60.870
   C    87.750  81.450  60.180
   C    89.240  81.860  60.530
   C    90.200  80.580  60.620
   C    89.230  82.840  61.770
   O    88.300  83.590  62.040
   O    90.350  82.690  62.470
   C    90.900  83.690  63.220
   C    91.710  83.000  64.360
   C    92.290  83.920  65.320
   C    93.300  83.190  66.320
   C    91.190  84.510  66.180
   N    92.860  85.210  64.670
   O    93.320  86.060  65.380
   C    93.000  85.240  63.080
   C    94.310  84.700  62.480
   C    92.990  86.790  62.860
   C    91.790  84.640  62.420
   C    89.820  82.830  59.480
   H    88.100  78.680  68.490
   H    87.100  79.840  69.340
   H    86.420  78.400  68.750
   H    88.940  80.480  67.020
   H    87.840  81.600  67.770
   H    87.780  81.430  65.990
   H    83.750  81.170  69.100
   H    82.520  81.550  66.900
   H    81.700  80.030  67.120
   H    82.780  82.910  69.290
   H    81.250  83.230  70.020
   H    81.590  83.650  68.300
   H    79.810  82.450  67.000
   H    79.190  82.550  68.580
   H    79.070  81.010  67.780
   H    80.160  79.150  71.720
   H    81.400  77.930  71.590
   H    81.820  79.560  72.030
   H    80.330  78.590  67.990
   H    79.480  78.250  69.420
   H    80.890  77.340  69.110
   H    82.990  78.300  69.040
   H    83.520  79.390  70.280
   H    87.530  77.980  66.350
   H    85.840  78.100  66.400
   H    85.420  79.970  63.110
   H    86.010  81.010  64.370
   H    84.710  79.820  64.710
   H    90.430  79.050  63.330
   H    91.850  79.760  64.880
   H    90.480  79.580  65.970
   H    93.860  78.980  66.180
   H    93.020  79.300  67.680
   H    93.710  77.680  67.380
   H    91.690  76.350  67.610
   H    90.150  76.860  66.970
   H    90.950  77.870  68.060
   H    92.790  77.180  61.710
   H    92.720  78.600  62.690
   H    94.040  77.570  62.880
   H    93.680  75.330  63.770
   H    92.230  74.810  64.590
   H    92.270  74.870  62.820
   H    90.080  76.360  64.500
   H    90.250  76.660  62.940
   H    85.360  77.210  64.580
   H    86.940  76.860  64.310
   H    83.920  78.380  62.280
   H    83.830  76.840  61.430
   H    83.760  77.000  63.170
   H    86.510  73.380  63.010
   H    86.940  73.430  60.660
   H    85.320  72.860  60.170
   H    88.170  70.100  61.710
   H    87.980  71.520  62.720
   H    88.620  71.650  61.110
   H    85.470  70.810  59.160
   H    87.120  71.300  59.010
   H    86.750  69.770  59.700
   H    85.180  70.760  65.290
   H    86.500  71.570  64.520
   H    86.220  69.930  64.180
   H    82.690  70.640  62.570
   H    83.640  69.420  63.470
   H    83.020  70.850  64.260
   H    84.300  73.050  63.980
   H    83.600  72.880  62.310
   H    87.600  78.210  61.610
   H    86.140  79.090  61.310
   H    88.720  76.670  59.940
   H    87.970  76.480  58.380
   H    87.290  75.630  59.680
   H    83.990  75.960  57.530
   H    83.410  75.200  60.190
   H    83.210  74.270  58.750
   H    80.720  75.550  61.500
   H    80.250  76.750  60.410
   H    81.840  76.910  61.080
   H    79.800  73.850  59.330
   H    81.400  73.170  59.040
   H    80.900  73.590  60.640
   H    82.000  76.560  55.090
   H    82.320  75.140  56.180
   H    80.680  75.570  55.630
   H    79.920  78.240  57.840
   H    80.750  78.810  56.420
   H    79.560  77.470  56.330
   H    82.170  77.980  58.960
   H    83.110  78.380  57.630
   H    88.560  78.910  59.840
   H    88.040  78.730  58.210
   H    89.020  80.760  57.780
   H    87.770  82.110  57.610
   H    87.600  80.590  56.790
   H    84.290  82.810  58.840
   H    82.340  80.840  60.150
   H    83.010  80.790  58.590
   H    81.560  81.770  56.890
   H    82.860  82.950  57.150
   H    81.200  83.470  57.090
   H    80.160  80.850  58.900
   H    79.460  82.460  58.680
   H    80.050  82.020  60.250
   H    80.640  83.780  61.960
   H    81.960  83.640  63.060
   H    81.550  82.290  62.060
   H    83.410  85.770  60.300
   H    83.410  85.560  62.060
   H    81.940  85.860  61.170
   H    83.990  82.450  61.800
   H    84.800  83.590  60.810
   H    87.370  82.470  60.150
   H    87.280  81.040  61.080
   H    90.270  80.100  59.640
   H    91.170  80.880  61.010
   H    89.740  79.920  61.350
   H    90.010  84.180  63.610
   H    92.410  82.350  63.830
   H    91.040  82.250  64.780
   H    94.200  82.880  65.800
   H    92.830  82.370  66.860
   H    93.610  83.930  67.050
   H    91.450  85.170  67.000
   H    90.430  85.040  65.600
   H    90.670  83.690  66.660
   H    94.320  84.810  61.390
   H    95.200  85.200  62.860
   H    94.460  83.640  62.690
   H    92.960  87.000  61.790
   H    93.880  87.330  63.190
   H    92.120  87.270  63.290
   H    92.140  84.090  61.540
   H    91.010  85.310  62.040
   H    89.140  83.630  59.220
   H    90.720  83.390  59.750
   H    90.150  82.450  58.510
  