239
PTMA_CHAIN4_time0point5
 C    104.160  97.040  20.180
   C    103.780  95.570  20.400
   C    102.440  95.450  19.700
   C    103.650  95.410  21.950
   O    102.550  95.260  22.540
   O    104.880  95.530  22.580
   C    105.050  96.360  23.800
   C    104.710  95.620  25.030
   C    104.760  96.420  26.430
   C    103.560  97.340  26.520
   C    104.660  95.410  27.520
   N    106.020  97.070  26.520
   O    106.340  97.440  27.690
   C    106.590  97.780  25.360
   C    105.970  99.230  25.160
   C    108.100  97.930  25.510
   C    106.410  96.880  24.030
   C    104.940  94.710  19.820
   C    104.620  93.230  19.380
   C    103.950  92.470  20.630
   C    103.750  93.080  18.090
   O    103.030  92.140  17.870
   O    103.900  94.080  17.280
   C    103.660  93.950  15.890
   C    103.420  95.390  15.270
   C    104.350  95.990  14.120
   C    103.600  96.730  13.040
   C    105.310  97.060  14.640
   N    105.180  94.950  13.500
   O    106.180  95.310  12.820
   C    104.990  93.510  13.700
   C    103.790  92.910  13.050
   C    106.180  92.640  13.330
   C    104.850  93.310  15.250
   C    106.010  92.640  19.010
   C    106.440  91.070  19.050
   C    106.700  90.770  20.590
   C    107.840  91.020  18.280
   O    107.950  91.740  17.250
   O    108.720  90.070  18.640
   C    110.040  90.120  18.020
   C    110.650  88.750  18.160
   C    111.960  88.710  17.220
   C    111.550  87.790  16.040
   C    113.070  87.880  18.010
   N    112.430  90.140  17.040
   O    112.710  90.510  15.790
   C    112.300  91.200  18.070
   C    112.930  92.540  17.620
   C    113.190  90.770  19.370
   C    110.820  91.300  18.590
   C    105.380  90.130  18.340
   C    105.630  88.820  17.610
   C    106.530  89.090  16.330
   C    106.270  87.640  18.480
   O    106.630  86.620  17.880
   O    106.650  87.880  19.770
   C    107.350  86.910  20.590
   C    108.530  87.580  21.110
   C    109.540  86.580  21.800
   C    110.530  87.340  22.790
   C    110.530  85.930  20.730
   N    108.860  85.480  22.410
   O    109.620  84.720  23.080
   C    107.330  85.190  22.450
   C    107.070  83.930  21.680
   C    106.900  85.210  23.950
   C    106.550  86.400  21.740
   C    104.270  88.300  16.940
   C    103.020  87.730  17.750
   C    102.420  86.630  16.770
   C    103.240  87.010  19.160
   O    103.340  85.790  19.190
   O    103.120  87.810  20.220
   C    102.340  87.320  21.290
   C    103.210  86.900  22.440
   C    102.510  86.690  23.880
   C    102.400  85.190  24.100
   C    103.290  87.300  25.080
   N    101.130  87.290  23.830
   O    100.240  86.840  24.620
   C    100.510  88.180  22.810
   C    100.120  89.490  23.420
   C    99.120  87.650  22.080
   C    101.550  88.530  21.720
   C    101.940  88.900  18.020
   C    100.880  89.360  16.940
   C    101.510  89.660  15.570
   C    100.160  90.700  17.470
   O    99.930  90.870  18.690
   O    99.410  91.330  16.540
   C    98.650  92.490  16.840
   C    99.490  93.630  16.370
   C    98.870  95.040  16.750
   C    99.550  96.130  15.820
   C    99.140  95.330  18.250
   N    97.390  94.930  16.490
   O    96.780  95.910  16.990
   C    96.590  93.850  15.810
   C    96.610  94.070  14.300
   C    95.150  93.760  16.350
   C    97.340  92.500  16.030
   C    99.640  88.430  16.740
   H    104.460  97.210  19.150
   H    103.360  97.660  20.560
   H    105.060  97.300  20.740
   H    102.480  95.850  18.680
   H    101.670  96.000  20.240
   H    102.010  94.450  19.730
   H    104.370  97.200  23.620
   H    103.700  95.200  25.100
   H    105.320  94.720  25.060
   H    103.180  97.680  25.560
   H    103.840  98.250  27.050
   H    102.770  96.920  27.140
   H    103.830  94.710  27.580
   H    104.850  95.890  28.480
   H    105.500  94.710  27.450
   H    105.940  99.710  26.140
   H    106.630  99.840  24.540
   H    105.010  99.290  24.650
   H    108.810  97.130  25.300
   H    108.590  98.200  26.450
   H    108.470  98.710  24.850
   H    107.170  96.100  23.990
   H    106.630  97.650  23.290
   H    105.360  95.220  18.960
   H    105.810  94.690  20.470
   H    103.740  91.420  20.440
   H    103.000  92.930  20.900
   H    104.480  92.520  21.580
   H    102.720  93.400  15.870
   H    102.460  95.240  14.780
   H    103.270  96.100  16.090
   H    102.850  96.100  12.560
   H    103.050  97.560  13.500
   H    104.410  97.080  12.390
   H    106.050  97.330  13.900
   H    105.940  96.810  15.490
   H    104.850  98.000  14.950
   H    103.740  91.850  13.300
   H    102.930  93.460  13.430
   H    103.830  92.990  11.960
   H    106.150  92.490  12.260
   H    107.100  93.170  13.580
   H    106.220  91.590  13.630
   H    105.850  93.560  15.600
   H    104.650  92.240  15.250
   H    106.770  93.150  19.590
   H    106.280  92.970  18.000
   H    107.100  91.640  21.110
   H    105.790  90.450  21.100
   H    107.500  90.040  20.690
   H    109.830  90.260  16.960
   H    110.020  87.910  17.860
   H    110.980  88.600  19.190
   H    112.210  88.100  15.230
   H    110.550  87.950  15.630
   H    111.730  86.740  16.270
   H    113.460  88.240  18.960
   H    112.630  86.940  18.330
   H    113.860  87.670  17.290
   H    113.050  93.390  18.290
   H    112.310  92.880  16.800
   H    113.890  92.430  17.120
   H    112.670  90.090  20.040
   H    114.170  90.450  19.010
   H    113.260  91.560  20.110
   H    110.590  92.290  18.190
   H    110.620  91.380  19.660
   H    104.930  90.780  17.590
   H    104.550  89.910  19.020
   H    106.210  90.040  15.890
   H    106.440  88.330  15.550
   H    107.600  89.210  16.500
   H    107.520  86.030  19.970
   H    108.300  88.330  21.860
   H    109.080  88.030  20.280
   H    111.210  88.060  22.330
   H    111.270  86.730  23.310
   H    109.930  87.970  23.450
   H    111.000  85.030  21.130
   H    109.940  85.630  19.870
   H    111.230  86.710  20.440
   H    105.990  83.820  21.560
   H    107.510  84.040  20.680
   H    107.430  83.080  22.260
   H    107.000  86.220  24.360
   H    105.890  84.880  24.150
   H    107.430  84.420  24.480
   H    106.140  87.130  22.440
   H    105.720  85.940  21.190
   H    103.990  89.010  16.170
   H    104.550  87.480  16.280
   H    102.130  86.900  15.750
   H    101.550  86.160  17.220
   H    103.140  85.820  16.670
   H    101.710  86.480  20.990
   H    103.940  87.680  22.690
   H    103.750  86.010  22.140
   H    103.410  84.800  24.260
   H    102.040  84.640  23.230
   H    101.900  85.040  25.050
   H    104.130  86.650  25.320
   H    102.700  87.190  25.990
   H    103.640  88.320  24.930
   H    99.310  89.350  24.140
   H    99.690  90.150  22.670
   H    101.010  89.960  23.820
   H    99.220  86.700  21.550
   H    98.770  88.440  21.420
   H    98.400  87.540  22.880
   H    102.230  89.320  22.050
   H    100.950  88.970  20.930
   H    101.250  88.520  18.780
   H    102.440  89.730  18.520
   H    101.730  88.760  15.010
   H    100.760  90.240  15.030
   H    102.370  90.310  15.730
   H    98.450  92.540  17.910
   H    99.780  93.680  15.320
   H    100.440  93.390  16.860
   H    99.310  95.890  14.780
   H    100.620  95.970  15.940
   H    99.180  97.130  16.070
   H    98.560  96.180  18.620
   H    98.920  94.530  18.950
   H    100.210  95.520  18.400
   H    96.020  93.380  13.700
   H    96.110  95.010  14.070
   H    97.530  93.920  13.740
   H    94.460  92.950  16.080
   H    94.660  94.690  16.050
   H    95.130  93.710  17.440
   H    97.370  91.900  15.130
   H    96.680  91.880  16.640
   H    99.100  88.260  17.670
   H    99.010  88.930  16.010
   H    99.760  87.450  16.270
  