239
PTMA_CHAIN8_time500
 C    88.600  38.440  63.370
   C    87.250  37.770  62.950
   C    86.370  39.070  62.710
   C    86.820  36.970  64.250
   O    85.830  37.250  64.970
   O    87.570  35.920  64.470
   C    87.450  35.280  65.670
   C    86.410  34.130  65.480
   C    86.170  33.290  66.760
   C    85.360  34.110  67.800
   C    85.350  32.040  66.300
   N    87.500  32.830  67.340
   O    87.450  31.880  68.120
   C    88.750  33.590  67.120
   C    89.040  34.370  68.400
   C    89.830  32.550  66.840
   C    88.800  34.510  65.890
   C    87.340  36.800  61.770
   C    86.100  36.090  61.080
   C    85.160  35.430  62.140
   C    85.240  37.190  60.280
   O    83.980  37.090  60.250
   O    85.960  38.030  59.600
   C    85.360  38.950  58.610
   C    86.220  40.220  58.520
   C    85.770  41.270  57.520
   C    84.900  42.330  58.130
   C    87.000  41.870  56.920
   N    84.960  40.740  56.370
   O    84.490  41.500  55.520
   C    84.760  39.250  56.170
   C    83.250  38.800  56.170
   C    85.280  38.870  54.710
   C    85.500  38.370  57.250
   C    86.670  35.120  59.980
   C    85.800  33.970  59.340
   C    85.590  32.930  60.460
   C    86.650  33.560  58.100
   O    86.750  34.390  57.140
   O    87.200  32.400  58.160
   C    88.180  31.960  57.230
   C    87.440  31.300  56.140
   C    88.320  30.700  54.990
   C    88.720  31.720  53.960
   C    87.530  29.530  54.280
   N    89.540  30.120  55.580
   O    90.250  29.530  54.880
   C    89.840  30.110  57.080
   C    91.260  30.560  57.370
   C    89.810  28.570  57.470
   C    88.780  30.880  57.940
   C    84.340  34.320  58.870
   C    83.410  33.500  57.910
   C    83.940  33.600  56.490
   C    83.060  32.000  58.170
   O    81.880  31.690  58.370
   O    84.060  31.120  58.050
   C    83.710  29.710  58.090
   C    84.840  28.970  57.460
   C    84.440  27.470  57.360
   C    85.700  26.670  57.000
   C    83.420  27.250  56.230
   N    83.790  26.900  58.590
   O    83.690  25.700  58.680
   C    83.360  27.800  59.770
   C    81.800  27.710  60.000
   C    84.080  27.280  61.040
   C    83.670  29.320  59.600
   C    82.100  34.420  57.710
   C    80.890  34.640  58.810
   C    79.570  34.510  57.980
   C    80.790  33.600  59.980
   O    79.810  32.830  60.130
   O    81.450  34.060  61.000
   C    81.210  33.450  62.230
   C    81.840  32.090  62.440
   C    81.490  31.410  63.770
   C    80.030  30.850  63.780
   C    82.450  30.220  63.940
   N    81.610  32.400  64.920
   O    81.720  31.920  66.060
   C    81.390  33.890  64.760
   C    82.390  34.570  65.790
   C    79.940  34.410  65.130
   C    81.710  34.360  63.350
   C    81.070  36.110  59.340
   C    80.040  37.010  60.180
   C    79.080  37.620  59.160
   C    80.880  38.140  60.830
   O    81.220  38.010  61.990
   O    80.970  39.290  60.130
   C    81.150  40.510  60.880
   C    82.590  40.690  61.210
   C    82.850  42.000  61.990
   C    84.390  42.190  62.060
   C    82.290  41.960  63.420
   N    82.240  43.170  61.360
   O    82.720  44.260  61.610
   C    80.950  43.110  60.590
   C    81.090  44.070  59.350
   C    79.710  43.510  61.410
   C    80.750  41.680  60.010
   C    79.210  36.320  61.240
   H    88.920  39.310  62.790
   H    88.580  38.790  64.410
   H    89.400  37.700  63.420
   H    85.450  38.940  62.130
   H    86.950  39.720  62.060
   H    86.190  39.610  63.630
   H    87.300  35.950  66.510
   H    85.420  34.470  65.160
   H    86.690  33.540  64.610
   H    85.700  33.960  68.820
   H    84.330  33.740  67.800
   H    85.350  35.190  67.620
   H    85.860  31.450  65.550
   H    84.420  32.340  65.830
   H    85.050  31.400  67.130
   H    90.080  34.690  68.370
   H    88.430  35.270  68.480
   H    89.000  33.680  69.250
   H    90.800  32.990  66.620
   H    89.700  31.780  66.080
   H    89.950  32.020  67.790
   H    88.980  33.950  64.980
   H    89.550  35.300  65.930
   H    87.820  37.310  60.940
   H    88.050  36.040  62.080
   H    84.290  34.960  61.690
   H    84.690  36.140  62.820
   H    85.600  34.590  62.660
   H    84.350  39.200  58.910
   H    86.280  40.670  59.510
   H    87.220  39.890  58.240
   H    83.980  41.900  58.550
   H    85.510  42.890  58.830
   H    84.620  43.140  57.470
   H    87.640  42.160  57.750
   H    86.740  42.710  56.280
   H    87.470  41.140  56.270
   H    83.360  37.740  55.960
   H    82.810  39.080  57.120
   H    82.540  39.140  55.410
   H    85.230  37.780  54.650
   H    84.600  39.280  53.960
   H    86.250  39.180  54.330
   H    86.550  38.250  56.980
   H    85.040  37.390  57.300
   H    87.580  34.660  60.370
   H    87.060  35.710  59.150
   H    86.510  32.500  60.880
   H    84.780  33.010  61.180
   H    85.200  32.030  60.000
   H    88.860  32.780  56.980
   H    86.780  32.030  55.670
   H    86.750  30.560  56.550
   H    87.800  31.820  53.390
   H    89.620  31.410  53.410
   H    88.930  32.650  54.500
   H    87.900  29.420  53.270
   H    87.480  28.590  54.820
   H    86.470  29.740  54.180
   H    91.750  30.430  58.340
   H    91.430  31.610  57.130
   H    91.870  29.980  56.680
   H    90.170  27.820  56.760
   H    90.410  28.310  58.340
   H    88.780  28.330  57.730
   H    89.310  31.200  58.830
   H    88.060  30.200  58.380
   H    84.280  35.320  58.430
   H    83.740  34.380  59.780
   H    84.340  34.560  56.190
   H    83.240  33.360  55.690
   H    84.760  32.900  56.310
   H    82.840  29.460  57.490
   H    85.760  29.090  58.030
   H    85.000  29.460  56.500
   H    85.360  25.640  56.930
   H    86.460  26.760  57.790
   H    86.210  27.060  56.120
   H    83.550  28.060  55.510
   H    83.560  26.430  55.520
   H    82.400  27.190  56.590
   H    81.430  28.180  59.090
   H    81.640  26.630  59.950
   H    81.440  28.190  60.900
   H    85.140  27.230  60.790
   H    83.900  27.880  61.930
   H    83.700  26.280  61.250
   H    84.630  29.540  60.080
   H    82.890  29.900  60.090
   H    82.480  35.310  57.200
   H    81.580  33.920  56.890
   H    79.540  35.220  57.160
   H    78.670  34.490  58.610
   H    79.450  33.540  57.490
   H    80.130  33.470  62.360
   H    82.910  32.250  62.350
   H    81.570  31.530  61.540
   H    79.770  30.320  64.700
   H    79.770  30.360  62.840
   H    79.340  31.700  63.810
   H    82.180  29.760  64.890
   H    83.500  30.500  64.000
   H    82.300  29.480  63.150
   H    83.450  34.540  65.560
   H    82.400  34.200  66.820
   H    82.130  35.620  65.910
   H    79.950  35.490  64.940
   H    79.680  34.220  66.170
   H    79.100  34.010  64.560
   H    82.800  34.350  63.290
   H    81.440  35.400  63.180
   H    81.930  36.030  60.010
   H    81.510  36.770  58.600
   H    79.580  37.920  58.240
   H    78.370  36.840  58.870
   H    78.520  38.480  59.530
   H    80.520  40.630  61.760
   H    83.090  40.540  60.250
   H    82.930  39.810  61.760
   H    84.760  42.300  61.040
   H    84.950  41.360  62.480
   H    84.680  43.040  62.670
   H    81.240  41.720  63.520
   H    82.810  41.190  64.000
   H    82.460  42.870  64.010
   H    81.910  43.710  58.720
   H    80.110  44.030  58.890
   H    81.290  45.100  59.680
   H    79.640  43.150  62.440
   H    78.840  43.230  60.820
   H    79.740  44.600  61.490
   H    81.200  41.550  59.030
   H    79.680  41.510  59.840
   H    78.680  35.460  60.850
   H    79.710  36.090  62.180
   H    78.460  37.010  61.640
  