239
PTMA_CHAIN5_frame5
 C    72.710  57.860  64.540
   C    73.150  59.390  64.500
   C    71.960  60.130  65.180
   C    73.120  59.860  63.020
   O    72.530  60.890  62.750
   O    73.910  59.130  62.240
   C    73.950  59.330  60.860
   C    75.340  59.340  60.350
   C    75.500  59.580  58.830
   C    75.430  61.050  58.570
   C    76.930  59.250  58.470
   N    74.530  58.840  57.940
   O    74.750  58.600  56.770
   C    73.180  58.510  58.520
   C    72.200  59.620  58.240
   C    72.690  57.140  58.010
   C    73.160  58.320  60.100
   C    74.550  59.560  65.210
   C    75.490  60.880  65.410
   C    75.600  61.470  63.970
   C    74.860  61.940  66.360
   O    74.880  63.150  66.140
   O    74.050  61.360  67.280
   C    73.480  62.150  68.270
   C    72.080  62.600  67.980
   C    71.600  63.570  69.070
   C    72.370  64.930  69.010
   C    70.140  63.920  68.760
   N    71.760  62.980  70.450
   O    71.030  63.370  71.350
   C    72.890  62.010  70.780
   C    73.960  62.840  71.430
   C    72.430  60.940  71.840
   C    73.470  61.270  69.560
   C    76.990  60.490  65.750
   C    77.970  61.110  66.800
   C    79.190  60.240  66.540
   C    77.500  60.750  68.260
   O    76.410  60.230  68.450
   O    78.480  60.890  69.190
   C    78.370  60.220  70.470
   C    77.650  61.130  71.510
   C    77.520  60.430  72.880
   C    76.340  59.410  72.870
   C    77.010  61.590  73.740
   N    78.880  59.960  73.370
   O    79.060  59.920  74.590
   C    79.850  59.360  72.400
   C    79.720  57.780  72.380
   C    81.330  59.700  72.830
   C    79.720  59.960  70.970
   C    78.240  62.690  66.480
   C    78.730  63.840  67.550
   C    77.820  63.940  68.750
   C    80.170  63.700  68.110
   O    80.640  64.510  68.950
   O    80.920  62.670  67.540
   C    82.290  62.470  67.690
   C    82.500  61.580  68.920
   C    84.030  61.400  69.130
   C    84.180  60.450  70.280
   C    84.620  62.750  69.670
   N    84.770  60.950  67.900
   O    85.930  60.550  67.990
   C    84.290  61.380  66.560
   C    85.130  62.530  66.040
   C    84.510  60.170  65.630
   C    82.760  61.760  66.520
   C    78.600  65.280  66.840
   C    79.250  65.740  65.470
   C    80.740  65.610  65.590
   C    78.680  64.850  64.270
   O    77.500  64.790  63.870
   O    79.730  64.140  63.650
   C    79.540  63.340  62.560
   C    80.230  63.870  61.300
   C    80.320  62.860  60.070
   C    79.070  62.950  59.240
   C    81.510  63.380  59.250
   N    80.420  61.420  60.530
   O    80.720  60.600  59.700
   C    80.050  60.920  61.880
   C    81.000  59.780  62.350
   C    78.560  60.450  61.860
   C    80.140  62.020  62.970
   C    78.780  67.230  65.340
   C    78.950  68.080  64.060
   C    77.510  68.250  63.520
   C    79.940  67.480  62.990
   O    79.560  66.920  61.960
   O    81.210  67.970  63.080
   C    82.090  67.570  62.010
   C    82.250  68.850  61.270
   C    83.160  68.620  60.050
   C    83.500  70.030  59.520
   C    82.350  67.770  59.000
   N    84.510  67.960  60.430
   O    85.520  68.160  59.650
   C    84.640  66.960  61.540
   C    86.010  67.140  62.270
   C    84.650  65.500  60.990
   C    83.500  67.070  62.600
   C    79.370  69.570  64.400
   H    71.720  57.730  64.090
   H    73.410  57.230  63.990
   H    72.770  57.360  65.500
   H    71.690  59.710  66.140
   H    71.080  59.940  64.560
   H    72.080  61.220  65.180
   H    73.610  60.340  60.640
   H    75.980  60.060  60.860
   H    75.800  58.400  60.680
   H    75.260  61.220  57.500
   H    76.280  61.630  58.900
   H    74.640  61.570  59.110
   H    77.130  58.180  58.480
   H    77.650  59.690  59.160
   H    77.170  59.600  57.470
   H    71.230  59.590  58.740
   H    72.510  60.600  58.580
   H    71.890  59.690  57.190
   H    72.600  57.080  56.920
   H    71.670  56.960  58.360
   H    73.230  56.280  58.400
   H    73.350  57.310  60.460
   H    72.140  58.520  60.440
   H    74.610  59.070  66.180
   H    75.280  59.000  64.620
   H    74.690  61.990  63.680
   H    75.910  60.710  63.260
   H    76.240  62.340  64.030
   H    74.070  63.060  68.380
   H    72.130  63.090  67.010
   H    71.360  61.790  67.840
   H    71.960  65.730  69.640
   H    73.430  64.960  69.260
   H    72.330  65.270  67.980
   H    70.000  64.530  67.870
   H    69.750  64.580  69.530
   H    69.550  63.000  68.780
   H    73.980  62.750  72.520
   H    75.000  62.670  71.140
   H    73.890  63.920  71.390
   H    72.060  61.370  72.770
   H    71.760  60.220  71.360
   H    73.240  60.320  72.220
   H    72.820  60.420  69.370
   H    74.450  60.840  69.770
   H    77.570  60.500  64.830
   H    77.010  59.420  65.980
   H    80.070  60.420  67.170
   H    79.000  59.200  66.820
   H    79.580  60.250  65.530
   H    77.710  59.350  70.440
   H    76.860  61.620  70.940
   H    78.250  62.010  71.730
   H    76.150  59.010  73.870
   H    76.600  58.530  72.270
   H    75.410  59.860  72.530
   H    75.950  61.780  73.610
   H    77.010  61.290  74.790
   H    77.740  62.390  73.650
   H    80.340  57.280  71.640
   H    78.660  57.710  72.110
   H    79.920  57.460  73.410
   H    81.460  59.490  73.900
   H    82.130  59.210  72.270
   H    81.590  60.730  72.590
   H    80.230  59.270  70.290
   H    80.220  60.930  70.950
   H    77.370  63.050  65.920
   H    79.070  62.740  65.780
   H    76.760  63.770  68.560
   H    77.930  64.910  69.240
   H    78.060  63.160  69.470
   H    82.800  63.440  67.660
   H    82.090  60.590  68.790
   H    82.030  62.100  69.750
   H    84.000  59.470  69.830
   H    83.590  60.690  71.160
   H    85.240  60.450  70.500
   H    83.880  63.040  70.420
   H    85.600  62.700  70.140
   H    84.710  63.650  69.050
   H    86.110  62.110  65.780
   H    84.690  63.040  65.180
   H    85.360  63.300  66.770
   H    84.370  59.230  66.170
   H    83.950  60.150  64.690
   H    85.550  60.170  65.310
   H    82.100  61.000  66.110
   H    82.630  62.400  65.640
   H    77.550  65.550  66.750
   H    78.870  65.930  67.680
   H    81.170  66.000  64.670
   H    81.260  64.650  65.680
   H    81.130  66.360  66.290
   H    78.460  63.360  62.390
   H    81.220  64.200  61.600
   H    79.650  64.750  61.020
   H    78.730  61.950  58.970
   H    79.230  63.520  58.330
   H    78.240  63.380  59.800
   H    81.530  64.400  58.890
   H    81.570  62.770  58.340
   H    82.410  63.250  59.860
   H    80.870  58.880  61.750
   H    80.810  59.500  63.380
   H    82.050  60.070  62.260
   H    78.550  59.530  61.270
   H    77.840  61.130  61.420
   H    78.100  60.320  62.840
   H    81.110  62.230  63.420
   H    79.630  61.690  63.880
   H    77.720  67.300  65.590
   H    79.180  67.890  66.110
   H    77.480  68.810  62.590
   H    77.120  67.280  63.220
   H    76.770  68.680  64.190
   H    81.690  66.780  61.370
   H    82.620  69.680  61.870
   H    81.220  69.000  60.920
   H    83.940  69.960  58.530
   H    84.160  70.520  60.240
   H    82.610  70.650  59.360
   H    82.410  66.720  59.280
   H    81.320  68.110  58.960
   H    82.810  68.010  58.040
   H    86.860  66.600  61.850
   H    86.330  68.170  62.040
   H    86.110  67.120  63.350
   H    85.570  65.380  60.410
   H    83.850  65.290  60.270
   H    84.610  64.720  61.760
   H    83.770  67.690  63.460
   H    83.370  66.040  62.940
   H    80.300  69.660  64.970
   H    79.390  70.300  63.590
   H    78.530  69.820  65.060
  