239
PTMA_CHAIN10_time0point0005
 C    87.190  79.180  68.450
   C    86.770  79.780  67.080
   C    87.870  80.780  66.690
   C    85.460  80.540  67.350
   O    85.360  81.760  67.360
   O    84.470  79.680  67.730
   C    83.340  80.260  68.450
   C    82.300  80.850  67.520
   C    81.150  81.510  68.330
   C    81.570  82.970  68.630
   C    79.910  81.570  67.400
   N    80.970  80.820  69.650
   O    79.690  81.140  70.220
   C    81.250  79.370  69.710
   C    81.160  78.850  71.170
   C    80.300  78.490  68.870
   C    82.720  79.120  69.260
   C    86.600  78.590  66.070
   C    86.660  78.780  64.520
   C    85.650  79.850  64.090
   C    88.120  79.140  64.090
   O    88.390  80.070  63.340
   O    89.010  78.270  64.620
   C    90.380  78.290  64.150
   C    91.310  78.930  65.190
   C    92.090  77.920  66.070
   C    93.030  78.770  66.980
   C    91.130  77.210  67.040
   N    92.770  76.840  65.280
   O    94.190  76.910  65.330
   C    92.290  76.590  63.890
   C    92.990  77.420  62.780
   C    92.500  75.090  63.570
   C    90.770  76.850  63.800
   C    86.350  77.370  63.870
   C    85.860  77.100  62.370
   C    84.320  77.260  62.350
   C    86.290  75.620  62.200
   O    87.470  75.300  62.110
   O    85.270  74.730  62.310
   C    85.660  73.330  62.420
   C    86.070  72.740  61.080
   C    86.480  71.240  61.210
   C    87.880  71.180  61.850
   C    86.610  70.720  59.750
   N    85.410  70.470  61.890
   O    85.810  69.110  62.100
   C    84.780  71.030  63.120
   C    85.580  70.860  64.430
   C    83.400  70.340  63.320
   C    84.460  72.530  62.930
   C    86.520  78.030  61.280
   C    86.750  77.720  59.750
   C    87.580  76.420  59.550
   C    85.560  77.490  58.800
   O    85.660  77.680  57.590
   O    84.500  76.870  59.380
   C    83.520  76.290  58.470
   C    82.910  75.030  59.090
   C    81.390  75.070  59.380
   C    81.100  75.920  60.640
   C    80.970  73.630  59.770
   N    80.600  75.690  58.270
   O    79.810  74.740  57.530
   C    81.280  76.650  57.350
   C    81.770  76.040  56.010
   C    80.260  77.770  57.030
   C    82.470  77.320  58.050
   C    87.670  78.850  59.120
   C    87.310  80.370  58.980
   C    88.050  80.850  57.690
   C    85.820  80.630  58.630
   O    85.360  80.540  57.490
   O    85.100  81.070  59.700
   C    84.020  81.980  59.350
   C    82.700  81.270  59.150
   C    81.630  82.280  58.640
   C    81.710  82.290  57.080
   C    80.240  81.710  59.000
   N    81.930  83.660  59.110
   O    80.790  84.540  58.950
   C    82.570  83.810  60.440
   C    81.670  83.370  61.630
   C    82.970  85.290  60.700
   C    83.890  82.990  60.490
   C    87.760  81.270  60.200
   C    89.230  81.790  60.430
   C    90.250  80.640  60.490
   C    89.250  82.620  61.740
   O    88.340  83.370  62.080
   O    90.480  82.570  62.350
   C    90.790  83.580  63.340
   C    91.630  82.940  64.420
   C    92.240  83.960  65.430
   C    93.390  83.210  66.160
   C    91.160  84.290  66.490
   N    92.590  85.250  64.770
   O    93.650  85.930  65.470
   C    92.810  85.250  63.310
   C    94.040  84.430  62.840
   C    93.010  86.700  62.780
   C    91.520  84.740  62.630
   C    89.700  82.820  59.370
   H    88.170  78.710  68.370
   H    87.220  79.930  69.240
   H    86.480  78.420  68.780
   H    88.830  80.280  66.590
   H    87.990  81.550  67.450
   H    87.650  81.300  65.760
   H    83.710  81.020  69.140
   H    82.750  81.560  66.820
   H    81.920  80.050  66.880
   H    82.450  83.010  69.280
   H    80.780  83.540  69.110
   H    81.820  83.500  67.710
   H    80.160  82.040  66.450
   H    79.110  82.180  67.810
   H    79.520  80.580  67.170
   H    80.140  78.820  71.550
   H    81.540  77.830  71.250
   H    81.750  79.470  71.840
   H    80.410  78.680  67.800
   H    79.250  78.640  69.110
   H    80.520  77.440  69.040
   H    82.770  78.200  68.690
   H    83.370  78.940  70.120
   H    87.350  77.850  66.350
   H    85.650  78.120  66.310
   H    85.680  80.050  63.020
   H    85.860  80.810  64.570
   H    84.630  79.580  64.380
   H    90.430  78.900  63.240
   H    92.030  79.550  64.670
   H    90.740  79.610  65.820
   H    93.760  79.360  66.420
   H    92.450  79.470  67.590
   H    93.590  78.150  67.680
   H    91.640  76.540  67.730
   H    90.380  76.590  66.540
   H    90.590  77.940  67.660
   H    92.500  77.250  61.820
   H    92.980  78.490  62.980
   H    94.030  77.130  62.650
   H    93.560  74.830  63.520
   H    92.040  74.460  64.330
   H    92.060  74.830  62.610
   H    90.220  76.150  64.430
   H    90.400  76.620  62.800
   H    85.600  76.910  64.520
   H    87.230  76.750  64.030
   H    84.030  78.310  62.290
   H    83.860  76.730  61.520
   H    83.850  76.860  63.250
   H    86.480  73.280  63.140
   H    86.880  73.310  60.630
   H    85.250  72.820  60.370
   H    88.270  70.170  61.890
   H    87.910  71.570  62.870
   H    88.610  71.760  61.280
   H    85.650  70.710  59.230
   H    87.270  71.350  59.150
   H    87.010  69.710  59.700
   H    85.030  71.270  65.280
   H    86.540  71.370  64.400
   H    85.770  69.810  64.660
   H    82.780  70.430  62.430
   H    83.500  69.280  63.550
   H    82.850  70.800  64.150
   H    84.120  72.970  63.870
   H    83.620  72.650  62.250
   H    87.520  78.250  61.640
   H    85.970  78.970  61.290
   H    88.460  76.420  60.190
   H    87.930  76.320  58.520
   H    86.970  75.530  59.710
   H    84.060  75.950  57.580
   H    83.450  74.770  60.000
   H    83.100  74.210  58.400
   H    81.670  75.540  61.490
   H    80.040  75.870  60.880
   H    81.370  76.970  60.530
   H    79.920  73.570  60.040
   H    81.160  72.920  58.970
   H    81.530  73.290  60.650
   H    82.360  76.760  55.450
   H    82.390  75.150  56.160
   H    80.950  75.760  55.360
   H    79.900  78.240  57.940
   H    80.700  78.560  56.410
   H    79.400  77.390  56.480
   H    82.180  77.940  58.900
   H    82.940  78.040  57.370
   H    88.610  78.790  59.660
   H    87.920  78.500  58.120
   H    89.120  80.650  57.730
   H    87.900  81.920  57.510
   H    87.670  80.340  56.800
   H    84.310  82.510  58.450
   H    82.400  80.820  60.090
   H    82.810  80.430  58.460
   H    81.550  81.290  56.670
   H    82.680  82.650  56.740
   H    80.950  82.940  56.650
   H    80.120  80.680  58.670
   H    79.420  82.260  58.530
   H    80.060  81.720  60.080
   H    80.710  83.890  61.640
   H    82.150  83.590  62.590
   H    81.480  82.300  61.640
   H    83.600  85.690  59.900
   H    83.560  85.380  61.620
   H    82.110  85.950  60.800
   H    83.990  82.470  61.440
   H    84.760  83.650  60.450
   H    87.170  82.190  60.140
   H    87.430  80.770  61.110
   H    90.360  80.130  59.530
   H    91.250  80.990  60.740
   H    89.960  79.900  61.230
   H    89.880  83.960  63.790
   H    92.410  82.330  63.960
   H    91.040  82.200  64.960
   H    94.220  83.000  65.480
   H    93.030  82.260  66.550
   H    93.760  83.790  67.000
   H    91.540  84.950  67.270
   H    90.310  84.810  66.030
   H    90.780  83.390  66.970
   H    94.170  84.510  61.760
   H    94.970  84.780  63.290
   H    93.950  83.370  63.060
   H    93.020  86.730  61.690
   H    93.960  87.140  63.100
   H    92.220  87.380  63.120
   H    91.730  84.460  61.600
   H    90.790  85.550  62.560
   H    88.900  83.520  59.130
   H    90.530  83.410  59.760
   H    90.060  82.350  58.460
  