239
PTMA_CHAIN10_time5
 C    88.840  79.100  68.080
   C    90.240  79.220  67.470
   C    90.930  78.110  68.250
   C    90.950  80.580  67.750
   O    92.100  80.530  68.200
   O    90.070  81.570  68.010
   C    90.450  82.920  68.330
   C    89.310  83.890  67.860
   C    89.550  85.340  68.100
   C    90.610  85.770  67.010
   C    88.320  86.210  67.800
   N    90.020  85.550  69.530
   O    89.750  86.610  70.070
   C    90.820  84.560  70.320
   C    92.340  84.950  70.210
   C    90.370  84.620  71.810
   C    90.530  83.140  69.860
   C    90.150  78.860  66.010
   C    91.240  79.250  64.930
   C    91.240  80.790  64.760
   C    92.610  78.590  65.230
   O    93.680  79.230  65.050
   O    92.560  77.380  65.830
   C    93.730  76.610  65.880
   C    94.760  77.140  66.880
   C    96.060  76.310  66.780
   C    96.790  76.860  65.540
   C    96.840  76.320  68.120
   N    95.830  74.820  66.390
   O    96.850  74.130  66.320
   C    94.430  74.220  66.200
   C    94.320  73.700  64.780
   C    94.220  73.090  67.300
   C    93.300  75.240  66.420
   C    90.640  78.750  63.580
   C    91.420  78.620  62.170
   C    90.260  78.590  61.190
   C    92.130  77.250  62.100
   O    92.640  76.710  63.060
   O    91.970  76.570  60.880
   C    92.690  75.390  60.710
   C    92.910  75.160  59.240
   C    93.920  74.040  58.960
   C    95.330  74.370  59.460
   C    94.110  73.820  57.460
   N    93.330  72.770  59.590
   O    93.640  71.660  59.140
   C    92.560  72.820  60.850
   C    93.560  72.310  61.930
   C    91.380  71.790  60.810
   C    91.920  74.220  61.110
   C    92.420  79.760  61.670
   C    93.650  79.670  60.680
   C    94.780  78.650  61.130
   C    93.360  79.410  59.150
   O    94.260  79.170  58.320
   O    92.080  79.480  58.900
   C    91.530  79.180  57.620
   C    91.000  77.770  57.460
   C    90.130  77.470  56.200
   C    88.930  76.560  56.510
   C    91.080  76.780  55.210
   N    89.620  78.730  55.570
   O    89.170  78.630  54.460
   C    89.620  80.100  56.270
   C    90.230  81.240  55.370
   C    88.170  80.550  56.500
   C    90.270  80.000  57.620
   C    94.360  81.060  60.950
   C    94.130  82.440  60.160
   C    94.700  82.340  58.720
   C    92.610  82.820  60.060
   O    91.990  82.750  58.990
   O    92.110  83.570  61.030
   C    91.240  84.700  60.830
   C    90.080  84.730  61.800
   C    89.070  85.900  61.790
   C    87.900  85.640  60.790
   C    88.370  86.020  63.140
   N    89.760  87.220  61.430
   O    89.120  88.250  61.680
   C    91.120  87.320  60.740
   C    91.810  88.560  61.290
   C    90.920  87.510  59.230
   C    91.960  86.060  61.000
   C    94.820  83.660  60.960
   C    96.370  83.970  61.050
   C    97.090  82.710  61.560
   C    96.540  85.170  62.070
   O    96.620  86.330  61.700
   O    96.460  84.780  63.360
   C    96.990  85.400  64.550
   C    95.770  85.640  65.420
   C    96.200  86.290  66.710
   C    94.920  86.430  67.610
   C    96.700  87.750  66.520
   N    97.200  85.340  67.400
   O    96.980  85.080  68.550
   C    98.280  84.560  66.660
   C    98.520  83.180  67.330
   C    99.630  85.330  66.590
   C    97.790  84.290  65.280
   C    97.090  84.310  59.690
   H    88.450  78.090  67.970
   H    88.920  79.390  69.130
   H    88.160  79.800  67.590
   H    90.470  77.120  68.290
   H    90.960  78.470  69.280
   H    91.950  77.900  67.910
   H    91.380  83.210  67.840
   H    89.250  83.770  66.780
   H    88.400  83.550  68.360
   H    90.290  85.540  65.990
   H    91.560  85.260  67.180
   H    90.810  86.840  67.040
   H    87.740  85.880  66.940
   H    88.570  87.250  67.600
   H    87.570  86.290  68.590
   H    92.450  85.960  70.610
   H    92.980  84.290  70.810
   H    92.670  84.980  69.170
   H    91.030  85.330  72.300
   H    90.690  83.790  72.440
   H    89.320  84.870  71.980
   H    89.550  82.760  70.150
   H    91.240  82.420  70.280
   H    89.980  77.790  65.940
   H    89.200  79.220  65.620
   H    91.620  81.080  63.780
   H    91.920  81.160  65.530
   H    90.250  81.230  64.860
   H    94.100  76.470  64.860
   H    94.970  78.190  66.700
   H    94.390  77.100  67.910
   H    96.370  76.510  64.600
   H    96.860  77.950  65.580
   H    97.830  76.560  65.660
   H    97.880  76.010  68.090
   H    96.350  75.620  68.800
   H    96.850  77.360  68.460
   H    93.310  73.660  64.360
   H    94.870  74.390  64.140
   H    94.780  72.720  64.660
   H    94.820  72.180  67.200
   H    94.500  73.420  68.300
   H    93.210  72.690  67.420
   H    93.140  75.310  67.500
   H    92.420  74.900  65.880
   H    89.710  79.300  63.450
   H    90.320  77.730  63.800
   H    89.600  79.460  61.250
   H    90.560  78.520  60.150
   H    89.600  77.730  61.340
   H    93.700  75.510  61.110
   H    93.330  76.110  58.910
   H    92.000  75.060  58.650
   H    96.130  74.180  58.740
   H    95.630  73.680  60.250
   H    95.510  75.360  59.870
   H    93.180  73.800  56.880
   H    94.680  74.690  57.140
   H    94.730  72.960  57.210
   H    94.430  72.920  62.180
   H    94.010  71.390  61.550
   H    93.010  72.180  62.850
   H    90.720  72.080  59.990
   H    91.600  70.800  60.410
   H    90.810  71.660  61.730
   H    91.730  74.190  62.180
   H    91.000  74.300  60.530
   H    93.020  79.950  62.560
   H    91.860  80.650  61.400
   H    94.460  77.610  61.020
   H    95.100  78.870  62.150
   H    95.650  78.610  60.480
   H    92.050  79.540  56.730
   H    90.460  77.420  58.330
   H    91.910  77.160  57.480
   H    88.700  75.810  55.760
   H    88.010  77.120  56.690
   H    89.140  75.940  57.380
   H    90.510  76.380  54.370
   H    91.780  77.450  54.720
   H    91.600  75.940  55.650
   H    90.400  82.090  56.030
   H    91.180  80.940  54.930
   H    89.690  81.530  54.480
   H    87.970  81.610  56.620
   H    87.670  80.260  55.570
   H    87.640  80.110  57.350
   H    89.540  79.560  58.310
   H    90.400  81.020  57.970
   H    94.440  81.380  61.990
   H    95.390  80.760  60.750
   H    95.710  81.960  58.560
   H    94.720  83.340  58.300
   H    93.990  81.860  58.050
   H    90.720  84.660  59.860
   H    90.530  84.750  62.800
   H    89.460  83.830  61.770
   H    87.210  84.950  61.280
   H    88.170  85.230  59.820
   H    87.290  86.530  60.650
   H    87.870  85.090  63.410
   H    87.580  86.760  63.050
   H    89.000  86.280  63.990
   H    91.310  89.460  60.950
   H    92.880  88.550  61.090
   H    91.710  88.480  62.370
   H    91.720  88.030  58.710
   H    90.050  88.160  59.180
   H    90.930  86.580  58.670
   H    92.310  86.060  62.030
   H    92.860  86.110  60.400
   H    94.430  84.620  60.600
   H    94.460  83.670  61.990
   H    97.250  82.010  60.740
   H    98.100  82.970  61.890
   H    96.490  82.290  62.370
   H    97.660  86.240  64.450
   H    95.240  84.740  65.710
   H    94.960  86.240  65.000
   H    94.460  85.480  67.900
   H    94.150  86.890  67.000
   H    95.040  86.980  68.550
   H    96.940  88.250  67.460
   H    97.620  87.850  65.940
   H    95.880  88.420  66.250
   H    98.990  82.460  66.670
   H    99.170  83.300  68.190
   H    97.600  82.730  67.700
   H    99.870  85.630  67.610
   H    99.700  86.170  65.910
   H    100.360  84.600  66.230
   H    97.230  83.360  65.260
   H    98.660  84.080  64.660
   H    96.440  84.870  59.030
   H    97.960  84.950  59.850
   H    97.480  83.440  59.160
  