239
PTMA_CHAIN10_time0point05
 C    87.210  79.090  68.380
   C    86.820  79.870  67.130
   C    87.940  80.900  66.860
   C    85.500  80.580  67.480
   O    85.450  81.800  67.440
   O    84.550  79.730  67.970
   C    83.350  80.170  68.530
   C    82.340  80.750  67.520
   C    81.310  81.530  68.280
   C    81.900  82.840  68.870
   C    80.100  81.960  67.390
   N    80.790  80.730  69.620
   O    80.030  81.250  70.320
   C    81.220  79.240  69.800
   C    81.100  78.950  71.310
   C    80.290  78.280  69.020
   C    82.630  79.050  69.410
   C    86.680  78.680  65.980
   C    86.730  78.890  64.430
   C    85.760  79.970  63.980
   C    88.200  79.200  64.020
   O    88.480  80.100  63.230
   O    89.050  78.430  64.650
   C    90.460  78.380  64.300
   C    91.370  79.040  65.450
   C    92.290  78.110  66.170
   C    93.390  78.870  66.920
   C    91.580  77.160  67.200
   N    93.000  77.110  65.180
   O    94.080  76.740  65.380
   C    92.300  76.640  63.850
   C    93.000  77.200  62.560
   C    92.520  75.130  63.950
   C    90.820  76.870  64.050
   C    86.310  77.430  63.850
   C    85.830  77.130  62.340
   C    84.240  77.240  62.420
   C    86.290  75.700  62.160
   O    87.500  75.450  62.240
   O    85.330  74.820  62.080
   C    85.720  73.440  62.320
   C    86.160  72.690  61.010
   C    86.650  71.290  61.200
   C    88.070  71.120  61.750
   C    86.600  70.650  59.810
   N    85.600  70.470  62.050
   O    85.400  69.300  61.800
   C    84.780  71.210  63.180
   C    85.560  70.830  64.400
   C    83.550  70.430  63.340
   C    84.530  72.660  62.860
   C    86.380  78.060  61.170
   C    86.720  77.740  59.590
   C    87.570  76.490  59.450
   C    85.510  77.510  58.600
   O    85.660  77.530  57.390
   O    84.450  77.040  59.160
   C    83.490  76.340  58.340
   C    82.910  75.130  59.170
   C    81.440  75.060  59.360
   C    80.910  75.980  60.540
   C    80.990  73.620  59.580
   N    80.590  75.590  58.120
   O    79.600  75.030  57.800
   C    81.220  76.680  57.220
   C    81.480  76.140  55.780
   C    80.040  77.660  56.960
   C    82.300  77.350  57.970
   C    87.740  78.860  59.110
   C    87.380  80.420  58.960
   C    88.170  80.930  57.710
   C    85.850  80.660  58.650
   O    85.400  80.670  57.510
   O    85.070  81.020  59.700
   C    84.110  81.990  59.370
   C    82.740  81.360  59.010
   C    81.740  82.260  58.530
   C    82.120  82.730  57.090
   C    80.260  81.700  58.600
   N    81.930  83.630  59.290
   O    81.340  84.550  58.890
   C    82.790  83.750  60.630
   C    81.940  83.560  61.980
   C    83.310  85.220  60.690
   C    83.990  82.820  60.620
   C    87.900  81.290  60.220
   C    89.360  81.820  60.460
   C    90.330  80.660  60.360
   C    89.460  82.520  61.840
   O    88.520  83.210  62.280
   O    90.740  82.570  62.420
   C    90.910  83.540  63.480
   C    91.880  82.920  64.510
   C    92.370  83.870  65.540
   C    93.410  83.240  66.570
   C    91.240  84.470  66.430
   N    92.980  85.170  64.910
   O    93.610  85.880  65.640
   C    92.900  85.280  63.320
   C    94.110  84.660  62.570
   C    92.940  86.790  63.180
   C    91.620  84.870  62.850
   C    89.670  83.020  59.510
   H    88.250  78.780  68.360
   H    87.020  79.680  69.280
   H    86.590  78.210  68.520
   H    88.930  80.440  66.810
   H    87.990  81.570  67.710
   H    87.750  81.570  66.020
   H    83.750  80.940  69.190
   H    82.820  81.250  66.680
   H    81.940  79.870  67.030
   H    82.550  82.720  69.740
   H    81.220  83.660  69.100
   H    82.540  83.190  68.060
   H    80.510  82.610  66.610
   H    79.320  82.570  67.850
   H    79.620  81.100  66.930
   H    80.100  78.940  71.760
   H    81.560  77.990  71.530
   H    81.650  79.720  71.850
   H    80.260  78.480  67.950
   H    79.240  78.260  69.290
   H    80.670  77.280  69.240
   H    82.710  78.080  68.930
   H    83.320  78.990  70.250
   H    87.390  77.930  66.330
   H    85.730  78.230  66.270
   H    85.860  80.070  62.890
   H    86.100  80.920  64.380
   H    84.700  79.840  64.200
   H    90.590  78.950  63.380
   H    91.900  79.790  64.880
   H    90.810  79.640  66.160
   H    94.040  79.470  66.280
   H    92.980  79.500  67.710
   H    94.040  78.180  67.450
   H    92.080  76.730  68.070
   H    91.090  76.250  66.850
   H    90.750  77.680  67.670
   H    92.510  76.710  61.710
   H    92.850  78.280  62.470
   H    94.070  77.050  62.470
   H    93.540  74.760  63.840
   H    92.140  74.710  64.880
   H    91.960  74.660  63.140
   H    90.310  76.210  64.750
   H    90.280  76.610  63.140
   H    85.660  77.040  64.640
   H    87.210  76.870  64.100
   H    83.910  78.270  62.510
   H    83.810  76.800  61.520
   H    83.840  76.680  63.260
   H    86.450  73.410  63.130
   H    86.850  73.330  60.460
   H    85.220  72.860  60.470
   H    88.300  70.050  61.710
   H    88.240  71.370  62.800
   H    88.840  71.440  61.050
   H    85.560  70.490  59.530
   H    87.090  71.230  59.040
   H    87.100  69.680  59.840
   H    84.840  70.630  65.190
   H    86.400  71.490  64.620
   H    85.990  69.830  64.360
   H    82.900  70.620  62.490
   H    83.760  69.370  63.490
   H    83.100  70.800  64.260
   H    84.100  73.130  63.740
   H    83.790  72.910  62.100
   H    87.360  78.470  61.410
   H    85.790  78.980  61.100
   H    88.420  76.480  60.140
   H    87.910  76.300  58.430
   H    86.950  75.600  59.600
   H    83.940  76.000  57.410
   H    83.360  74.970  60.150
   H    83.300  74.270  58.610
   H    80.900  75.500  61.530
   H    79.870  76.300  60.450
   H    81.410  76.940  60.660
   H    79.920  73.430  59.650
   H    81.340  73.090  58.690
   H    81.470  73.200  60.470
   H    81.930  76.890  55.120
   H    82.100  75.250  55.820
   H    80.570  75.810  55.290
   H    79.800  78.230  57.860
   H    80.100  78.330  56.100
   H    79.070  77.170  56.790
   H    82.030  78.020  58.790
   H    82.860  78.010  57.310
   H    88.650  78.790  59.700
   H    88.040  78.610  58.100
   H    89.180  80.550  57.600
   H    88.180  82.020  57.680
   H    87.630  80.690  56.790
   H    84.540  82.630  58.600
   H    82.350  80.910  59.920
   H    82.910  80.490  58.370
   H    81.760  81.990  56.370
   H    83.190  82.850  56.980
   H    81.700  83.680  56.760
   H    80.110  80.710  58.170
   H    79.480  82.320  58.150
   H    79.970  81.680  59.650
   H    81.080  84.220  62.030
   H    82.460  83.750  62.920
   H    81.490  82.570  62.050
   H    84.160  85.430  60.030
   H    83.540  85.490  61.720
   H    82.510  85.930  60.460
   H    83.780  82.100  61.410
   H    85.010  83.160  60.810
   H    87.360  82.220  60.110
   H    87.530  80.870  61.160
   H    90.420  80.020  59.490
   H    91.350  81.000  60.530
   H    90.140  79.990  61.200
   H    89.970  83.810  63.950
   H    92.700  82.450  63.980
   H    91.300  82.120  64.950
   H    94.450  83.290  66.250
   H    93.030  82.250  66.840
   H    93.340  83.820  67.490
   H    91.550  85.220  67.150
   H    90.540  84.970  65.770
   H    90.720  83.650  66.930
   H    94.690  85.330  61.940
   H    94.930  84.260  63.170
   H    93.820  83.790  61.970
   H    93.100  87.110  62.150
   H    93.740  87.320  63.680
   H    92.020  87.240  63.560
   H    91.580  84.740  61.770
   H    90.750  85.520  63.000
   H    88.840  83.720  59.400
   H    90.530  83.550  59.920
   H    90.040  82.640  58.560
  