239
PTMA_CHAIN10_frame4
 C    70.890  67.250  50.580
   C    71.650  67.930  49.470
   C    71.330  69.440  49.750
   C    71.020  67.460  48.130
   O    70.450  68.140  47.270
   O    71.100  66.130  48.050
   C    70.450  65.430  47.060
   C    71.540  64.940  46.010
   C    70.950  64.120  44.880
   C    70.110  64.950  43.840
   C    72.190  63.540  44.110
   N    70.040  62.980  45.330
   O    69.690  62.120  44.490
   C    69.140  63.120  46.550
   C    67.760  63.650  46.100
   C    68.840  61.730  47.210
   C    69.700  64.170  47.630
   C    73.120  67.530  49.590
   C    74.300  68.170  48.800
   C    74.090  68.240  47.350
   C    74.610  69.630  49.350
   O    74.390  70.660  48.700
   O    74.950  69.540  50.580
   C    75.240  70.680  51.390
   C    74.700  70.370  52.760
   C    75.040  71.380  53.880
   C    73.990  72.530  53.840
   C    75.050  70.620  55.200
   N    76.390  72.080  53.750
   O    76.830  72.700  54.760
   C    77.180  72.140  52.470
   C    76.970  73.580  51.850
   C    78.650  71.920  52.720
   C    76.690  71.020  51.440
   C    75.560  67.230  49.070
   C    76.930  67.210  48.280
   C    76.600  66.660  46.750
   C    77.820  66.300  49.090
   O    77.960  66.330  50.330
   O    78.360  65.250  48.360
   C    78.990  64.130  49.010
   C    80.400  64.470  49.570
   C    81.320  63.280  49.930
   C    81.450  63.200  51.540
   C    82.690  63.550  49.320
   N    80.910  61.880  49.470
   O    81.680  60.930  49.580
   C    79.610  61.710  48.620
   C    78.570  60.890  49.500
   C    79.900  60.820  47.300
   C    79.110  63.010  48.020
   C    77.570  68.690  48.230
   C    79.090  69.000  47.970
   C    79.650  69.060  49.420
   C    79.850  67.960  47.080
   O    80.860  67.390  47.450
   O    79.270  67.810  45.970
   C    79.930  67.120  44.920
   C    79.970  65.550  45.140
   C    80.970  64.890  44.110
   C    80.750  63.420  44.270
   C    82.500  65.110  44.440
   N    80.750  65.380  42.690
   O    81.210  64.650  41.830
   C    80.230  66.760  42.380
   C    81.440  67.730  42.100
   C    79.520  66.680  41.010
   C    79.340  67.310  43.520
   C    79.210  70.420  47.330
   C    80.510  71.210  46.880
   C    81.810  70.730  47.420
   C    80.750  70.890  45.290
   O    81.650  70.060  44.880
   O    79.780  71.380  44.500
   C    79.980  71.280  43.150
   C    78.650  71.360  42.380
   C    78.700  71.350  40.880
   C    78.670  69.900  40.370
   C    77.460  72.110  40.280
   N    79.990  72.000  40.340
   O    80.080  72.080  39.110
   C    81.170  72.460  41.180
   C    81.620  73.910  40.850
   C    82.390  71.550  40.830
   C    80.910  72.420  42.700
   C    80.480  72.780  47.040
   C    80.220  73.610  48.310
   C    80.420  72.880  49.650
   C    78.800  74.250  48.340
   O    78.580  75.440  48.700
   O    77.850  73.400  47.880
   C    76.710  73.880  47.260
   C    76.330  72.640  46.390
   C    75.000  72.790  45.630
   C    74.610  71.390  45.000
   C    75.190  73.760  44.450
   N    73.920  73.380  46.550
   O    72.740  73.140  46.260
   C    74.240  74.280  47.740
   C    73.210  74.020  48.820
   C    74.100  75.770  47.320
   C    75.660  74.170  48.310
   C    81.260  74.760  48.440
   H    71.170  67.410  51.620
   H    69.830  67.500  50.560
   H    70.880  66.170  50.440
   H    70.280  69.700  49.640
   H    71.950  70.140  49.200
   H    71.590  69.760  50.760
   H    69.620  65.900  46.540
   H    71.970  65.830  45.560
   H    72.360  64.380  46.450
   H    69.510  65.770  44.250
   H    69.280  64.390  43.420
   H    70.680  65.480  43.090
   H    72.010  63.430  43.040
   H    72.650  62.610  44.440
   H    73.040  64.210  44.240
   H    67.770  64.590  45.560
   H    67.280  62.820  45.570
   H    67.210  63.870  47.010
   H    68.210  61.840  48.100
   H    69.740  61.200  47.500
   H    68.350  61.060  46.510
   H    70.380  63.650  48.300
   H    68.910  64.560  48.280
   H    73.370  67.560  50.650
   H    73.190  66.460  49.400
   H    73.950  67.240  46.940
   H    74.870  68.780  46.810
   H    73.200  68.880  47.300
   H    74.720  71.600  51.090
   H    73.620  70.360  52.620
   H    75.130  69.380  52.930
   H    73.770  72.980  54.810
   H    74.240  73.310  53.130
   H    73.040  72.150  53.490
   H    74.960  71.250  56.090
   H    75.970  70.050  55.320
   H    74.240  69.900  55.330
   H    77.610  74.240  52.440
   H    77.410  73.750  50.860
   H    75.910  73.820  51.830
   H    78.910  71.250  53.540
   H    79.290  71.810  51.840
   H    79.000  72.870  53.140
   H    77.260  70.120  51.670
   H    76.960  71.360  50.450
   H    75.140  66.230  48.940
   H    75.760  67.240  50.140
   H    76.440  67.520  46.100
   H    77.430  66.040  46.420
   H    75.790  65.940  46.860
   H    78.290  63.930  49.830
   H    80.330  65.300  50.270
   H    80.940  65.090  48.850
   H    81.610  64.170  52.020
   H    82.330  62.670  51.890
   H    80.630  62.620  51.960
   H    83.340  62.690  49.520
   H    82.670  63.700  48.240
   H    83.120  64.450  49.770
   H    78.470  61.340  50.490
   H    78.790  59.830  49.580
   H    77.610  60.850  48.990
   H    80.220  59.830  47.650
   H    78.980  60.680  46.730
   H    80.730  61.240  46.730
   H    78.110  62.820  47.640
   H    79.840  63.270  47.250
   H    77.250  69.080  49.190
   H    76.970  69.280  47.530
   H    79.000  69.630  50.090
   H    80.670  69.450  49.390
   H    79.820  68.100  49.900
   H    80.970  67.450  44.960
   H    78.960  65.190  44.960
   H    80.210  65.210  46.150
   H    80.870  62.960  45.250
   H    81.340  62.800  43.590
   H    79.710  63.200  44.050
   H    83.190  64.340  44.060
   H    82.990  66.000  44.030
   H    82.640  65.030  45.520
   H    82.150  67.390  41.350
   H    81.070  68.700  41.770
   H    82.110  67.980  42.920
   H    80.170  66.590  40.140
   H    78.770  65.890  41.040
   H    78.830  67.520  40.890
   H    78.370  66.810  43.560
   H    79.040  68.340  43.360
   H    78.430  70.650  46.600
   H    78.860  71.040  48.170
   H    82.580  71.270  46.870
   H    81.960  69.650  47.420
   H    82.010  70.900  48.480
   H    80.340  70.300  42.830
   H    78.220  72.300  42.730
   H    77.900  70.620  42.640
   H    78.640  69.770  39.280
   H    77.790  69.350  40.710
   H    79.570  69.380  40.670
   H    76.500  71.600  40.350
   H    77.700  72.450  39.270
   H    77.320  73.050  40.810
   H    80.770  74.580  40.760
   H    82.230  74.070  39.970
   H    82.230  74.300  41.670
   H    83.340  72.070  40.970
   H    82.360  71.190  39.810
   H    82.290  70.740  41.550
   H    80.490  73.360  43.060
   H    81.880  72.330  43.190
   H    81.440  73.070  46.610
   H    79.900  73.180  46.210
   H    81.460  72.660  49.880
   H    80.100  73.520  50.480
   H    79.890  71.940  49.790
   H    76.870  74.660  46.510
   H    76.320  71.750  47.020
   H    77.180  72.640  45.710
   H    73.550  71.390  44.760
   H    74.650  70.690  45.840
   H    75.210  71.100  44.140
   H    75.300  74.800  44.760
   H    76.130  73.480  43.970
   H    74.370  73.720  43.740
   H    72.180  74.160  48.470
   H    73.300  72.960  49.050
   H    73.500  74.570  49.720
   H    73.260  75.830  46.630
   H    74.890  76.200  46.700
   H    73.970  76.420  48.180
   H    75.690  73.310  48.980
   H    75.980  74.970  48.970
   H    81.070  75.450  49.270
   H    82.300  74.460  48.450
   H    81.210  75.390  47.550
  