239
chain_5_time_0_001ps_16rad
 C    90.420  63.990  70.140
   C    91.240  65.170  69.480
   C    90.210  66.280  69.200
   C    91.750  64.610  68.160
   O    91.330  64.940  67.060
   O    92.640  63.580  68.370
   C    92.870  62.680  67.250
   C    93.900  63.190  66.280
   C    94.070  62.200  65.080
   C    93.000  62.590  64.020
   C    95.460  62.470  64.470
   N    93.780  60.790  65.490
   H    94.160  60.070  64.770
   C    94.120  60.430  66.890
   C    93.600  58.980  67.210
   C    95.630  60.450  67.220
   C    93.360  61.380  67.880
   C    92.370  65.580  70.480
   C    93.060  66.990  70.450
   C    93.610  67.220  69.040
   C    92.080  68.070  70.890
   O    91.880  69.120  70.270
   O    91.470  67.740  72.060
   C    90.690  68.750  72.770
   C    89.190  68.470  72.620
   C    88.540  67.750  73.830
   C    87.010  67.640  73.530
   C    89.040  66.280  73.900
   N    88.880  68.380  75.160
   H    88.030  68.830  75.670
   C    90.080  69.260  75.200
   C    89.810  70.770  74.910
   C    90.690  69.160  76.620
   C    91.160  68.760  74.210
   C    94.220  66.940  71.530
   C    95.480  67.910  71.600
   C    96.570  67.300  70.690
   C    95.840  67.790  73.110
   O    95.140  68.270  73.980
   O    96.910  66.980  73.350
   C    97.130  66.610  74.740
   C    97.770  67.750  75.540
   C    97.990  67.360  77.020
   C    96.620  67.390  77.760
   C    98.880  68.490  77.630
   N    98.730  66.050  77.130
   H    98.840  65.750  78.170
   C    98.340  64.920  76.250
   C    97.100  64.100  76.720
   C    99.530  63.930  76.130
   C    98.060  65.410  74.800
   C    95.190  69.420  71.190
   C    95.960  70.710  71.680
   C    95.980  70.840  73.220
   C    97.440  70.920  71.320
   O    97.940  72.050  71.280
   O    98.180  69.780  71.280
   C    99.620  69.940  71.340
   C    100.250  68.770  72.090
   C    101.210  67.890  71.270
   C    100.420  66.950  70.320
   C    101.900  66.910  72.280
   N    102.170  68.660  70.400
   H    103.190  68.640  70.780
   C    101.760  70.030  69.960
   C    102.350  71.190  70.820
   C    102.230  70.220  68.500
   C    100.190  70.170  69.960
   C    95.150  72.000  71.200
   C    94.890  72.440  69.710
   C    94.840  73.990  69.740
   C    96.080  72.150  68.760
   O    97.070  72.900  68.670
   O    95.870  71.080  67.960
   C    96.490  71.200  66.650
   C    97.890  70.560  66.610
   C    98.550  70.840  65.220
   C    99.310  72.200  65.340
   C    99.620  69.760  65.000
   N    97.530  71.010  64.140
   H    97.950  70.930  63.140
   C    96.270  70.210  64.280
   C    96.490  68.670  64.130
   C    95.230  70.610  63.170
   C    95.580  70.490  65.650
   C    93.540  71.880  69.100
   C    92.110  72.470  69.380
   C    91.800  72.520  70.890
   C    91.070  71.640  68.590
   O    91.280  71.190  67.470
   O    89.850  71.640  69.220
   C    88.680  71.260  68.450
   C    87.740  70.490  69.380
   C    86.340  70.240  68.740
   C    85.400  69.890  69.920
   C    86.450  68.980  67.840
   N    85.900  71.350  67.840
   O    84.490  71.440  67.750
   C    86.530  72.680  68.040
   C    86.180  73.350  69.400
   C    86.080  73.670  66.920
   C    88.070  72.520  67.870
   C    91.910  73.890  68.790
   H    89.930  64.320  71.050
   H    89.690  63.620  69.430
   H    91.090  63.170  70.390
   H    89.720  66.630  70.110
   H    89.420  65.880  68.570
   H    90.670  67.130  68.700
   H    91.920  62.500  66.750
   H    93.640  64.190  65.940
   H    94.850  63.330  66.810
   H    91.990  62.420  64.390
   H    93.160  62.010  63.110
   H    93.080  63.630  63.730
   H    95.580  63.540  64.250
   H    95.600  61.940  63.530
   H    96.290  62.160  65.100
   H    94.160  58.230  66.660
   H    93.680  58.770  68.280
   H    92.550  58.880  66.960
   H    96.020  61.460  67.190
   H    96.200  59.840  66.520
   H    95.800  60.060  68.220
   H    93.980  61.610  68.750
   H    92.490  60.890  68.320
   H    91.960  65.430  71.480
   H    93.140  64.810  70.420
   H    94.120  68.180  68.950
   H    92.840  67.220  68.270
   H    94.350  66.470  68.720
   H    90.880  69.740  72.350
   H    88.690  69.440  72.500
   H    89.010  67.920  71.700
   H    86.540  68.610  73.390
   H    86.820  67.150  72.570
   H    86.450  67.130  74.310
   H    88.500  65.740  74.690
   H    90.110  66.210  74.060
   H    88.820  65.760  72.970
   H    90.740  71.330  74.830
   H    89.280  70.930  73.970
   H    89.240  71.230  75.710
   H    90.040  69.600  77.370
   H    90.900  68.130  76.890
   H    91.640  69.700  76.670
   H    91.510  67.770  74.480
   H    92.060  69.360  74.300
   H    94.640  65.930  71.550
   H    93.700  66.970  72.480
   H    96.400  67.540  69.640
   H    97.570  67.650  70.950
   H    96.620  66.210  70.730
   H    96.150  66.360  75.160
   H    97.170  68.660  75.470
   H    98.710  68.040  75.080
   H    96.730  67.190  78.820
   H    95.900  66.660  77.390
   H    96.180  68.380  77.630
   H    99.870  68.500  77.180
   H    98.450  69.470  77.450
   H    98.980  68.350  78.710
   H    96.910  63.310  76.000
   H    96.200  64.690  76.780
   H    97.270  63.630  77.690
   H    100.420  64.470  75.810
   H    99.760  63.470  77.090
   H    99.290  63.140  75.430
   H    97.670  64.620  74.160
   H    99.000  65.720  74.330
   H    94.160  69.600  71.500
   H    95.240  69.470  70.100
   H    94.990  70.690  73.650
   H    96.320  71.820  73.550
   H    96.710  70.180  73.690
   H    99.820  70.820  71.950
   H    99.490  68.150  72.540
   H    100.810  69.170  72.930
   H    99.720  66.340  70.880
   H    101.080  66.260  69.790
   H    99.870  67.480  69.540
   H    102.550  66.190  71.780
   H    102.460  67.460  73.030
   H    101.140  66.360  72.840
   H    101.900  72.130  70.520
   H    102.160  71.010  71.880
   H    103.420  71.330  70.700
   H    101.840  69.430  67.870
   H    101.910  71.180  68.100
   H    103.320  70.220  68.450
   H    99.750  69.510  69.220
   H    99.910  71.180  69.660
   H    94.200  71.900  71.740
   H    95.660  72.830  71.690
   H    94.130  74.350  70.480
   H    94.620  74.400  68.760
   H    95.790  74.420  70.050
   H    96.580  72.250  66.370
   H    97.790  69.490  66.790
   H    98.520  70.950  67.410
   H    100.010  72.150  66.160
   H    98.630  73.040  65.530
   H    99.860  72.450  64.430
   H    100.300  69.680  65.840
   H    100.230  69.960  64.120
   H    99.160  68.780  64.840
   H    96.980  68.440  63.180
   H    95.510  68.190  64.090
   H    97.050  68.260  64.960
   H    95.090  71.690  63.270
   H    94.270  70.130  63.360
   H    95.540  70.350  62.160
   H    95.220  69.550  66.080
   H    94.730  71.160  65.520
   H    93.680  71.940  68.020
   H    93.520  70.810  69.310
   H    92.460  73.190  71.430
   H    90.780  72.860  71.080
   H    91.930  71.530  71.330
   H    88.990  70.610  67.640
   H    87.630  71.040  70.320
   H    88.200  69.550  69.650
   H    85.240  70.750  70.570
   H    85.860  69.120  70.530
   H    84.450  69.510  69.560
   H    85.470  68.680  67.470
   H    87.120  69.200  67.010
   H    86.860  68.140  68.400
   H    86.660  74.330  69.450
   H    85.110  73.510  69.520
   H    86.540  72.790  70.260
   H    86.660  74.590  66.960
   H    85.020  73.940  66.990
   H    86.220  73.240  65.930
   H    88.550  73.400  68.300
   H    88.300  72.550  66.810
   H    92.350  73.980  67.790
   H    90.860  74.140  68.680
   H    92.280  74.700  69.410
  