239
PTMA_CHAIN1_time0point0005
 C    92.410  25.360  76.800
   C    92.470  26.670  75.980
   C    91.040  27.260  76.030
   C    92.790  26.230  74.540
   O    91.980  26.260  73.610
   O    94.020  25.670  74.470
   C    94.300  24.820  73.320
   C    94.720  25.610  72.090
   C    94.930  24.660  70.890
   C    93.560  24.480  70.170
   C    95.870  25.390  69.890
   N    95.380  23.280  71.330
   H    95.830  22.720  70.510
   C    96.200  23.220  72.560
   C    96.430  21.740  72.980
   C    97.590  23.890  72.440
   C    95.430  23.880  73.750
   C    93.560  27.590  76.630
   C    93.590  29.150  76.410
   C    93.580  29.450  74.900
   C    92.390  29.800  77.130
   O    91.630  30.610  76.630
   O    92.320  29.380  78.430
   C    91.420  30.050  79.350
   C    90.190  29.190  79.650
   C    90.250  28.390  80.970
   C    88.880  27.660  81.110
   C    91.290  27.260  80.870
   N    90.670  29.230  82.140
   O    89.630  29.400  83.110
   C    91.350  30.530  81.870
   C    90.420  31.760  81.700
   C    92.310  30.810  83.050
   C    92.240  30.390  80.600
   C    94.900  29.670  77.100
   C    95.630  31.080  76.840
   C    96.570  30.870  75.630
   C    96.400  31.240  78.170
   O    95.830  31.500  79.220
   O    97.730  30.960  78.080
   C    98.440  30.840  79.340
   C    98.780  32.200  79.940
   C    99.530  32.080  81.300
   C    98.520  31.650  82.380
   C    100.000  33.530  81.640
   N    100.730  31.210  81.140
   H    101.240  31.060  82.090
   C    100.590  29.930  80.390
   C    99.990  28.740  81.180
   C    102.020  29.490  79.910
   C    99.760  30.120  79.090
   C    94.650  32.290  76.570
   C    94.920  33.820  76.820
   C    95.300  34.100  78.310
   C    96.030  34.570  76.080
   O    96.000  35.790  75.910
   O    97.120  33.810  75.810
   C    98.330  34.540  75.450
   C    99.570  33.780  75.940
   C    100.550  33.280  74.850
   C    99.980  32.020  74.160
   C    101.820  32.770  75.600
   N    100.800  34.280  73.780
   O    102.120  34.850  73.820
   C    99.780  35.320  73.510
   C    100.050  36.700  74.170
   C    99.730  35.540  71.970
   C    98.370  34.840  73.950
   C    93.570  34.630  76.640
   C    92.750  34.790  75.300
   C    92.070  36.170  75.390
   C    93.640  34.910  74.040
   O    94.170  35.970  73.680
   O    93.680  33.760  73.310
   C    93.820  33.980  71.880
   C    95.270  33.950  71.420
   C    95.360  34.330  69.910
   C    95.500  35.880  69.840
   C    96.680  33.730  69.350
   N    94.100  33.970  69.180
   H    94.240  33.990  68.100
   C    93.390  32.750  69.640
   C    94.150  31.420  69.410
   C    92.010  32.620  68.910
   C    93.040  32.870  71.160
   C    91.640  33.680  75.080
   C    90.230  33.700  75.790
   C    90.330  33.740  77.320
   C    89.430  32.430  75.320
   O    89.490  31.990  74.170
   O    88.550  32.010  76.270
   C    87.480  31.120  75.860
   C    87.210  30.150  77.000
   C    85.930  29.290  76.790
   C    85.580  28.720  78.190
   C    86.310  28.100  75.880
   N    84.860  30.030  76.090
   O    83.550  29.540  76.420
   C    84.910  31.520  76.130
   C    84.710  32.140  77.530
   C    83.800  32.140  75.210
   C    86.260  31.980  75.510
   C    89.310  34.840  75.310
   H    92.100  25.530  77.830
   H    91.740  24.620  76.360
   H    93.390  24.880  76.850
   H    90.740  27.500  77.050
   H    90.310  26.550  75.640
   H    90.940  28.160  75.420
   H    93.400  24.230  73.130
   H    93.980  26.370  71.860
   H    95.640  26.160  72.320
   H    92.850  23.980  70.830
   H    93.650  23.890  69.260
   H    93.130  25.450  69.910
   H    95.480  26.380  69.680
   H    95.930  24.870  68.930
   H    96.870  25.530  70.290
   H    97.060  21.200  72.280
   H    96.900  21.690  73.970
   H    95.500  21.180  73.020
   H    97.540  24.970  72.330
   H    98.170  23.480  71.610
   H    98.170  23.710  73.350
   H    96.130  24.430  74.390
   H    94.980  23.130  74.400
   H    93.540  27.420  77.710
   H    94.530  27.200  76.300
   H    93.580  30.520  74.690
   H    92.690  29.070  74.400
   H    94.440  29.000  74.410
   H    91.070  30.980  78.890
   H    89.320  29.840  79.680
   H    90.010  28.510  78.820
   H    88.050  28.370  81.140
   H    88.690  27.030  80.250
   H    88.830  27.030  82.000
   H    91.290  26.650  81.770
   H    92.310  27.620  80.710
   H    91.080  26.590  80.030
   H    91.010  32.620  81.400
   H    89.640  31.600  80.950
   H    89.930  32.030  82.640
   H    91.780  30.990  83.980
   H    92.990  29.980  83.230
   H    92.930  31.680  82.860
   H    93.020  29.650  80.740
   H    92.780  31.310  80.420
   H    95.660  28.900  76.960
   H    94.700  29.620  78.170
   H    96.050  30.910  74.670
   H    97.390  31.590  75.600
   H    97.070  29.900  75.660
   H    97.830  30.230  80.010
   H    97.860  32.790  80.060
   H    99.370  32.780  79.230
   H    98.970  31.640  83.380
   H    98.090  30.670  82.190
   H    97.690  32.350  82.450
   H    100.730  33.890  80.920
   H    99.150  34.220  81.640
   H    100.460  33.560  82.620
   H    99.970  27.840  80.570
   H    98.960  28.930  81.500
   H    100.580  28.490  82.060
   H    102.490  30.280  79.340
   H    102.670  29.230  80.750
   H    101.960  28.610  79.260
   H    99.550  29.170  78.600
   H    100.340  30.690  78.370
   H    93.760  32.090  77.150
   H    94.350  32.240  75.520
   H    94.610  33.600  78.990
   H    95.280  35.160  78.540
   H    96.330  33.790  78.520
   H    98.320  35.490  75.980
   H    99.260  32.940  76.570
   H    100.100  34.470  76.590
   H    99.740  31.240  74.880
   H    100.710  31.590  73.460
   H    99.070  32.220  73.600
   H    102.550  32.330  74.920
   H    102.310  33.570  76.160
   H    101.550  31.980  76.290
   H    99.210  37.380  74.050
   H    100.230  36.600  75.240
   H    100.920  37.210  73.750
   H    99.520  34.610  71.440
   H    98.920  36.230  71.710
   H    100.670  35.940  71.600
   H    98.030  33.980  73.370
   H    97.610  35.590  73.720
   H    92.870  34.250  77.380
   H    93.770  35.650  76.980
   H    91.480  36.290  76.290
   H    91.440  36.370  74.520
   H    92.810  36.980  75.430
   H    93.370  34.930  71.600
   H    95.680  32.950  71.590
   H    95.870  34.610  72.050
   H    96.370  36.220  70.410
   H    94.620  36.390  70.230
   H    95.620  36.220  68.810
   H    97.520  34.010  69.980
   H    96.910  34.100  68.350
   H    96.660  32.640  69.310
   H    94.440  31.290  68.370
   H    93.520  30.570  69.670
   H    95.040  31.360  70.030
   H    91.430  33.530  69.010
   H    91.430  31.800  69.340
   H    92.130  32.400  67.850
   H    93.220  31.920  71.670
   H    91.990  33.090  71.320
   H    91.410  33.680  74.020
   H    92.100  32.710  75.270
   H    90.760  34.690  77.650
   H    89.370  33.650  77.810
   H    90.960  32.920  77.690
   H    87.790  30.550  74.980
   H    87.180  30.700  77.940
   H    88.090  29.510  77.130
   H    85.260  29.500  78.880
   H    86.440  28.240  78.650
   H    84.800  27.960  78.150
   H    85.470  27.410  75.760
   H    86.590  28.450  74.880
   H    87.140  27.530  76.280
   H    84.720  33.230  77.500
   H    83.760  31.860  77.980
   H    85.490  31.870  78.240
   H    83.960  33.210  75.110
   H    82.810  31.980  75.620
   H    83.840  31.720  74.200
   H    86.440  33.020  75.790
   H    86.180  31.970  74.430
   H    89.420  35.010  74.240
   H    88.260  34.640  75.520
   H    89.520  35.780  75.810
  