239
PTMA_CHAIN8_time5
 C    90.260  39.540  68.970
   C    89.170  38.700  68.340
   C    88.080  39.740  67.820
   C    88.770  37.670  69.450
   O    87.740  37.820  70.130
   O    89.800  36.950  69.770
   C    89.800  36.250  70.950
   C    89.290  34.840  70.600
   C    89.230  33.810  71.730
   C    87.930  34.020  72.580
   C    89.150  32.380  71.120
   N    90.440  33.930  72.680
   O    90.760  33.000  73.460
   C    91.350  35.200  72.670
   C    91.070  36.100  73.860
   C    92.810  34.750  72.670
   C    91.180  36.120  71.410
   C    89.800  37.960  67.100
   C    89.070  37.040  66.070
   C    87.940  36.270  66.680
   C    88.490  37.940  64.910
   O    87.380  37.790  64.510
   O    89.410  38.810  64.440
   C    88.970  39.870  63.560
   C    89.900  41.080  63.860
   C    89.930  42.280  62.840
   C    88.780  43.320  62.980
   C    91.280  43.010  62.940
   N    89.910  41.690  61.460
   O    90.310  42.410  60.540
   C    89.140  40.420  61.120
   C    87.670  40.730  60.720
   C    89.780  39.930  59.800
   C    89.380  39.310  62.220
   C    90.080  36.030  65.520
   C    89.710  34.810  64.590
   C    88.980  33.750  65.450
   C    91.180  34.270  64.220
   O    92.060  35.090  63.910
   O    91.430  32.970  64.590
   C    92.800  32.600  64.980
   C    93.410  31.410  64.360
   C    94.910  31.310  64.700
   C    95.750  32.280  63.810
   C    95.420  29.870  64.400
   N    95.220  31.630  66.120
   O    96.410  31.580  66.510
   C    94.160  32.040  67.110
   C    94.640  33.290  67.730
   C    94.090  31.010  68.250
   C    92.810  32.260  66.450
   C    88.800  35.130  63.310
   C    88.700  34.260  62.000
   C    90.120  34.390  61.240
   C    88.450  32.750  62.190
   O    87.560  32.200  61.500
   O    89.340  32.080  62.890
   C    89.290  30.670  62.700
   C    89.990  30.230  61.430
   C    89.670  28.720  61.230
   C    90.430  28.150  60.110
   C    88.110  28.630  60.780
   N    89.750  27.890  62.500
   O    89.530  26.680  62.390
   C    90.130  28.510  63.840
   C    89.240  27.860  64.870
   C    91.550  28.250  64.250
   C    89.880  30.020  63.920
   C    87.730  34.900  60.920
   C    86.180  35.230  61.260
   C    85.580  35.290  59.760
   C    85.420  34.130  62.050
   O    84.650  33.320  61.510
   O    85.720  34.060  63.380
   C    84.960  33.160  64.190
   C    85.640  31.760  64.350
   C    85.010  30.840  65.410
   C    83.740  30.060  64.860
   C    86.100  29.780  65.700
   N    84.530  31.620  66.600
   O    84.530  31.000  67.640
   C    84.040  33.050  66.540
   C    84.300  33.710  67.910
   C    82.510  33.050  66.340
   C    84.760  33.870  65.490
   C    86.020  36.590  61.970
   C    84.640  37.440  62.000
   C    84.460  38.290  60.730
   C    84.670  38.420  63.210
   O    84.130  38.110  64.280
   O    84.950  39.710  62.820
   C    84.440  40.760  63.560
   C    85.570  41.310  64.400
   C    85.310  42.510  65.310
   C    86.630  43.180  65.850
   C    84.530  42.070  66.530
   N    84.420  43.540  64.630
   O    84.520  44.690  65.030
   C    83.610  43.200  63.390
   C    83.760  44.350  62.330
   C    82.150  43.150  63.790
   C    84.090  41.910  62.610
   C    83.340  36.570  62.120
   H    90.500  40.430  68.400
   H    90.070  39.790  70.020
   H    91.220  39.050  69.140
   H    87.200  39.210  67.470
   H    88.410  40.440  67.060
   H    87.830  40.270  68.740
   H    89.250  36.680  71.780
   H    88.290  34.840  70.170
   H    89.900  34.470  69.770
   H    87.070  34.070  71.910
   H    87.780  34.960  73.100
   H    87.730  33.270  73.340
   H    88.960  31.630  71.890
   H    89.980  32.110  70.460
   H    88.300  32.280  70.440
   H    91.510  35.590  74.710
   H    91.590  37.050  73.940
   H    90.000  36.080  74.050
   H    93.380  35.400  72.010
   H    92.970  33.750  72.270
   H    93.200  34.710  73.690
   H    91.810  35.830  70.560
   H    91.490  37.140  71.640
   H    90.360  38.750  66.600
   H    90.620  37.340  67.460
   H    87.250  35.890  65.930
   H    87.270  36.980  67.160
   H    88.260  35.530  67.410
   H    87.900  40.060  63.610
   H    89.680  41.490  64.840
   H    90.880  40.600  63.880
   H    87.820  42.830  63.100
   H    88.930  44.080  63.760
   H    88.750  44.020  62.140
   H    92.020  42.360  62.480
   H    91.560  43.330  63.940
   H    91.210  43.950  62.380
   H    87.410  41.780  60.830
   H    87.490  40.540  59.660
   H    86.870  40.180  61.210
   H    89.570  40.610  58.980
   H    90.870  39.890  59.830
   H    89.380  38.960  59.530
   H    90.440  39.090  62.160
   H    88.910  38.340  62.040
   H    90.660  35.600  66.330
   H    90.820  36.660  65.030
   H    87.900  33.910  65.390
   H    89.100  32.710  65.170
   H    89.320  33.880  66.470
   H    93.470  33.460  64.900
   H    93.310  31.580  63.290
   H    92.870  30.510  64.630
   H    95.690  33.300  64.180
   H    95.480  32.270  62.750
   H    96.760  31.890  63.900
   H    95.160  29.650  63.360
   H    96.480  29.700  64.550
   H    94.890  29.160  65.040
   H    93.990  33.680  68.510
   H    94.600  34.110  67.010
   H    95.630  33.270  68.190
   H    93.220  31.230  68.870
   H    94.120  30.000  67.850
   H    94.980  31.050  68.880
   H    92.390  33.120  66.960
   H    92.260  31.330  66.620
   H    89.100  36.140  63.030
   H    87.790  35.210  63.710
   H    90.480  35.420  61.200
   H    90.070  34.090  60.200
   H    90.920  33.790  61.690
   H    88.260  30.320  62.700
   H    91.070  30.370  61.420
   H    89.640  30.660  60.500
   H    90.050  27.150  59.900
   H    91.490  28.070  60.360
   H    90.290  28.710  59.180
   H    87.780  27.600  60.940
   H    87.420  29.390  61.140
   H    88.050  28.740  59.700
   H    89.600  26.840  65.000
   H    89.310  28.340  65.850
   H    88.190  27.920  64.600
   H    91.790  28.710  65.210
   H    91.790  27.190  64.190
   H    92.230  28.630  63.490
   H    90.840  30.520  64.050
   H    89.200  30.280  64.740
   H    88.120  35.780  60.400
   H    87.730  34.210  60.080
   H    86.030  36.070  59.150
   H    84.510  35.530  59.850
   H    85.620  34.330  59.240
   H    83.950  33.060  63.800
   H    86.660  31.930  64.690
   H    85.740  31.210  63.420
   H    82.810  30.250  65.400
   H    83.830  28.980  64.760
   H    83.530  30.530  63.900
   H    85.630  28.910  66.150
   H    86.870  30.190  66.350
   H    86.520  29.390  64.780
   H    84.000  33.060  68.730
   H    83.900  34.720  67.910
   H    85.360  33.780  68.170
   H    81.970  32.490  67.100
   H    82.130  32.670  65.390
   H    82.100  34.060  66.370
   H    85.730  34.040  65.970
   H    84.270  34.840  65.410
   H    86.210  36.370  63.020
   H    86.790  37.300  61.650
   H    83.640  39.010  60.760
   H    85.410  38.790  60.530
   H    84.280  37.690  59.850
   H    83.520  40.430  64.040
   H    86.330  41.600  63.670
   H    86.040  40.490  64.960
   H    86.410  43.830  66.700
   H    87.060  43.770  65.050
   H    87.310  42.390  66.180
   H    84.410  42.900  67.220
   H    83.520  41.780  66.240
   H    85.000  41.210  66.990
   H    84.760  44.440  61.920
   H    83.080  44.170  61.500
   H    83.630  45.350  62.740
   H    81.520  42.740  63.000
   H    81.730  44.150  63.930
   H    81.980  42.570  64.690
   H    84.940  42.320  62.070
   H    83.300  41.660  61.910
   H    83.380  36.040  63.070
   H    82.450  37.200  62.120
   H    83.250  35.760  61.400
  