239
PTMA_CHAIN6_time16
 C    70.850  34.370  35.650
   C    71.600  33.140  35.140
   C    70.860  32.830  33.800
   C    71.410  32.040  36.160
   O    71.140  30.860  35.730
   O    71.170  32.440  37.440
   C    70.670  31.620  38.430
   C    71.780  31.300  39.440
   C    71.260  30.400  40.610
   C    71.340  28.920  40.240
   C    72.110  30.560  41.860
   N    69.820  30.670  40.940
   H    69.270  30.140  41.720
   C    69.050  31.810  40.420
   C    67.660  31.340  40.070
   C    68.820  32.890  41.590
   C    69.670  32.500  39.190
   C    73.150  33.640  34.980
   C    74.090  33.070  33.950
   C    74.140  31.520  34.220
   C    73.740  33.290  32.460
   O    74.070  32.440  31.660
   O    73.110  34.450  32.190
   C    72.700  34.700  30.890
   C    71.270  34.200  30.560
   C    71.040  34.380  29.030
   C    71.370  33.050  28.310
   C    69.610  34.880  28.700
   N    71.980  35.340  28.430
   H    72.240  35.220  27.370
   C    72.680  36.470  29.170
   C    74.130  36.620  28.640
   C    72.000  37.810  28.900
   C    72.680  36.160  30.660
   C    75.560  33.620  34.330
   C    76.870  33.680  33.470
   C    78.000  34.190  34.400
   C    76.630  34.760  32.420
   O    76.250  34.520  31.270
   O    76.800  35.980  32.910
   C    76.690  37.120  32.030
   C    78.130  37.350  31.550
   C    78.240  38.420  30.450
   C    78.050  37.770  29.040
   C    79.560  39.250  30.530
   N    77.140  39.460  30.710
   H    76.850  40.120  29.900
   C    76.370  39.670  31.960
   C    75.070  40.240  31.620
   C    77.090  40.770  32.810
   C    76.270  38.320  32.770
   C    77.270  32.300  32.910
   C    78.680  31.950  32.380
   C    79.250  33.100  31.440
   C    79.750  31.710  33.510
   O    80.900  32.090  33.360
   O    79.240  31.190  34.670
   C    80.020  30.850  35.800
   C    80.430  32.080  36.590
   C    81.030  31.800  37.890
   C    80.850  33.040  38.760
   C    82.520  31.620  37.660
   N    80.310  30.690  38.470
   H    79.890  30.950  39.450
   C    79.820  29.490  37.730
   C    81.020  28.520  37.480
   C    78.780  28.850  38.660
   C    79.100  29.980  36.550
   C    78.580  30.710  31.370
   C    78.680  29.150  31.740
   C    78.610  28.370  30.440
   C    80.090  28.890  32.380
   O    80.240  28.770  33.620
   O    81.030  29.070  31.430
   C    82.380  28.900  31.800
   C    82.760  27.470  32.120
   C    84.160  27.500  32.720
   C    84.130  27.780  34.240
   C    84.700  26.050  32.500
   N    85.110  28.410  32.110
   H    86.170  28.210  32.230
   C    84.790  29.590  31.410
   C    85.790  29.790  30.240
   C    84.940  30.650  32.480
   C    83.380  29.490  30.800
   C    77.560  28.800  32.730
   C    77.160  27.300  33.030
   C    78.270  26.350  33.360
   C    76.240  26.740  31.830
   O    76.390  25.600  31.340
   O    75.510  27.710  31.290
   C    74.690  27.440  30.140
   C    73.330  27.130  30.690
   C    72.410  26.950  29.470
   C    70.940  26.870  30.060
   C    72.480  25.490  28.850
   N    72.560  27.920  28.310
   O    71.580  28.010  27.450
   C    73.910  28.500  27.980
   C    73.760  29.830  27.370
   C    74.620  27.550  26.900
   C    74.660  28.690  29.310
   C    76.220  27.300  34.270
   H    69.800  34.120  35.790
   H    71.180  34.600  36.670
   H    70.940  35.240  35.000
   H    71.050  33.470  32.940
   H    69.780  32.820  33.970
   H    71.130  31.860  33.400
   H    70.120  30.750  38.060
   H    72.610  30.830  38.920
   H    72.310  32.180  39.810
   H    72.370  28.610  40.030
   H    70.750  28.580  39.390
   H    70.970  28.320  41.070
   H    73.170  30.770  41.690
   H    72.030  29.660  42.480
   H    72.060  31.430  42.510
   H    67.640  30.420  39.500
   H    67.070  31.060  40.940
   H    67.100  32.110  39.540
   H    68.600  33.840  41.110
   H    69.720  32.950  42.210
   H    68.130  32.590  42.380
   H    70.150  33.420  39.520
   H    68.920  32.740  38.440
   H    73.080  34.690  34.710
   H    73.700  33.620  35.930
   H    74.570  31.250  35.190
   H    74.820  31.140  33.450
   H    73.160  31.070  34.120
   H    73.410  34.250  30.180
   H    71.110  33.150  30.780
   H    70.610  34.690  31.260
   H    70.960  33.000  27.300
   H    72.440  32.950  28.110
   H    71.000  32.130  28.770
   H    69.380  34.570  27.680
   H    69.600  35.970  28.700
   H    68.880  34.360  29.310
   H    74.780  35.850  29.070
   H    74.210  36.530  27.560
   H    74.540  37.560  29.010
   H    71.170  37.970  29.580
   H    72.560  38.690  29.220
   H    71.630  37.970  27.880
   H    71.920  36.560  31.320
   H    73.580  36.720  30.930
   H    75.840  33.060  35.230
   H    75.370  34.640  34.660
   H    78.470  33.440  35.040
   H    78.800  34.540  33.750
   H    77.580  34.970  35.040
   H    75.930  37.050  31.250
   H    78.430  36.390  31.130
   H    78.810  37.600  32.370
   H    77.880  38.570  28.330
   H    77.210  37.070  28.970
   H    78.960  37.260  28.740
   H    80.270  39.000  29.730
   H    79.340  40.310  30.420
   H    80.050  39.150  31.500
   H    74.270  40.310  32.360
   H    74.770  39.540  30.840
   H    75.090  41.190  31.090
   H    76.590  40.810  33.780
   H    78.090  40.440  33.070
   H    77.090  41.810  32.490
   H    75.240  38.240  33.120
   H    76.830  38.390  33.700
   H    76.580  32.130  32.080
   H    77.060  31.440  33.550
   H    80.180  32.820  30.950
   H    79.610  34.020  31.900
   H    78.610  33.360  30.600
   H    80.910  30.350  35.430
   H    79.480  32.570  36.800
   H    80.960  32.790  35.950
   H    79.800  33.280  38.930
   H    81.480  33.800  38.310
   H    81.280  33.050  39.750
   H    82.750  30.660  37.190
   H    82.870  32.400  36.990
   H    83.060  31.600  38.610
   H    81.530  28.280  38.410
   H    80.770  27.540  37.070
   H    81.810  28.860  36.800
   H    78.390  28.050  38.040
   H    79.290  28.540  39.570
   H    78.050  29.610  38.940
   H    78.160  30.520  36.660
   H    78.800  29.080  36.010
   H    77.670  30.800  30.770
   H    79.370  30.870  30.640
   H    79.410  28.660  29.750
   H    77.610  28.510  30.030
   H    78.770  27.300  30.600
   H    82.570  29.420  32.740
   H    82.720  27.010  31.130
   H    82.070  26.990  32.820
   H    85.090  27.660  34.730
   H    83.550  26.960  34.650
   H    83.680  28.720  34.560
   H    84.770  25.960  31.420
   H    83.970  25.320  32.850
   H    85.610  25.810  33.040
   H    85.490  29.020  29.530
   H    86.820  29.480  30.460
   H    85.850  30.830  29.920
   H    86.000  30.910  32.500
   H    84.690  30.470  33.530
   H    84.370  31.500  32.110
   H    83.350  28.900  29.880
   H    82.970  30.460  30.500
   H    77.750  29.300  33.680
   H    76.660  29.330  32.430
   H    79.050  26.300  32.600
   H    78.750  26.610  34.310
   H    77.820  25.360  33.350
   H    75.020  26.580  29.560
   H    72.910  27.940  31.280
   H    73.370  26.180  31.210
   H    70.950  26.200  30.920
   H    70.270  26.480  29.300
   H    70.730  27.880  30.430
   H    73.470  25.220  28.480
   H    72.190  24.680  29.510
   H    71.770  25.390  28.030
   H    72.960  30.360  27.890
   H    74.630  30.480  27.410
   H    73.230  29.640  26.430
   H    75.040  26.630  27.300
   H    75.470  28.070  26.460
   H    74.000  27.420  26.010
   H    74.220  29.580  29.770
   H    75.650  29.020  28.990
   H    75.410  28.010  34.070
   H    75.750  26.330  34.440
   H    76.690  27.660  35.180
  