239
PTMA_CHAIN5_time5
 C    88.610  65.010  73.710
   C    89.200  66.180  72.960
   C    88.420  67.460  73.290
   C    89.050  65.910  71.420
   O    88.510  66.630  70.610
   O    89.660  64.770  71.080
   C    89.420  64.110  69.870
   C    89.960  64.870  68.650
   C    89.740  64.110  67.380
   C    88.310  64.190  66.860
   C    90.630  64.690  66.230
   N    90.080  62.710  67.500
   H    90.120  62.130  66.580
   C    90.220  62.000  68.750
   C    88.950  61.210  68.840
   C    91.520  61.120  68.660
   C    90.280  62.910  70.020
   C    90.750  66.270  73.350
   C    91.880  67.330  72.950
   C    91.980  67.340  71.330
   C    91.610  68.790  73.430
   O    92.020  69.760  72.800
   O    90.790  68.890  74.440
   C    90.470  70.240  74.920
   C    89.120  70.760  74.380
   C    88.670  72.180  74.850
   C    89.510  73.190  74.060
   C    87.150  72.350  74.510
   N    88.990  72.370  76.340
   O    88.350  73.250  76.950
   C    90.120  71.570  77.050
   C    91.480  72.320  77.030
   C    89.680  71.410  78.540
   C    90.260  70.140  76.440
   C    93.300  66.760  73.410
   C    94.390  67.560  74.230
   C    95.540  66.490  74.340
   C    93.880  67.750  75.720
   O    92.820  67.220  76.070
   O    94.820  68.050  76.640
   C    94.640  67.750  78.030
   C    93.950  68.910  78.710
   C    93.680  68.610  80.160
   C    92.390  67.800  80.400
   C    93.370  69.930  80.870
   N    94.800  67.970  80.890
   H    94.860  68.150  81.970
   C    95.840  67.180  80.210
   C    95.340  65.690  80.350
   C    97.200  67.330  80.930
   C    96.010  67.650  78.730
   C    94.920  68.770  73.360
   C    95.400  70.220  73.930
   C    94.350  70.860  74.910
   C    96.690  70.170  74.760
   O    96.870  70.970  75.630
   O    97.500  69.220  74.390
   C    98.770  69.000  75.060
   C    98.640  68.630  76.570
   C    99.940  68.240  77.210
   C    99.710  67.440  78.560
   C    100.750  69.530  77.580
   N    100.860  67.450  76.340
   O    101.800  66.820  76.900
   C    100.760  67.410  74.840
   C    101.720  68.380  74.220
   C    101.060  65.980  74.280
   C    99.320  67.740  74.370
   C    95.410  71.290  72.840
   C    96.480  71.580  71.750
   C    97.900  71.670  72.250
   C    96.430  70.320  70.810
   O    97.140  69.370  71.010
   O    95.670  70.450  69.760
   C    95.640  69.540  68.660
   C    94.680  68.430  69.050
   C    94.720  67.450  67.860
   C    95.880  66.410  68.040
   C    93.420  66.530  67.860
   N    94.710  68.110  66.540
   H    94.500  67.510  65.660
   C    94.970  69.550  66.250
   C    93.890  70.080  65.320
   C    96.250  69.590  65.390
   C    95.110  70.340  67.480
   C    96.060  72.850  70.880
   C    96.210  74.390  71.360
   C    95.970  74.760  72.880
   C    95.320  75.290  70.500
   O    95.700  76.080  69.670
   O    94.020  74.980  70.780
   C    92.940  75.490  69.970
   C    93.000  74.770  68.670
   C    91.770  74.900  67.680
   C    91.830  73.590  66.830
   C    91.850  76.230  66.920
   N    90.460  75.000  68.460
   O    89.410  74.620  67.870
   C    90.340  75.670  69.810
   C    89.070  75.240  70.550
   C    90.150  77.180  69.570
   C    91.580  75.340  70.700
   C    97.640  74.800  71.050
   H    88.840  65.160  74.770
   H    87.540  65.050  73.520
   H    89.100  64.100  73.380
   H    88.340  67.620  74.370
   H    87.390  67.330  72.970
   H    88.760  68.340  72.740
   H    88.360  63.890  69.810
   H    89.530  65.870  68.570
   H    91.020  64.980  68.870
   H    88.230  63.670  65.900
   H    87.990  65.220  66.740
   H    87.700  63.740  67.640
   H    90.340  65.730  66.070
   H    90.400  64.190  65.280
   H    91.700  64.590  66.410
   H    88.940  60.490  68.020
   H    88.830  60.680  69.790
   H    88.050  61.820  68.730
   H    91.240  60.140  69.040
   H    92.370  61.590  69.170
   H    91.810  60.940  67.630
   H    91.340  63.110  70.160
   H    89.990  62.310  70.880
   H    90.890  66.150  74.430
   H    91.170  65.330  72.990
   H    92.780  68.000  71.010
   H    91.110  67.810  70.870
   H    92.100  66.370  70.850
   H    91.320  70.880  74.640
   H    89.230  70.740  73.300
   H    88.320  70.020  74.460
   H    90.520  73.290  74.470
   H    89.650  72.810  73.050
   H    89.070  74.190  74.130
   H    86.740  73.230  75.000
   H    86.550  71.500  74.830
   H    86.980  72.460  73.440
   H    92.270  71.760  77.530
   H    91.800  72.630  76.030
   H    91.340  73.210  77.630
   H    89.730  72.370  79.060
   H    88.610  71.170  78.550
   H    90.330  70.780  79.140
   H    89.390  69.550  76.740
   H    91.160  69.690  76.850
   H    93.880  66.420  72.550
   H    93.180  65.770  73.850
   H    95.260  65.650  74.970
   H    95.870  66.130  73.370
   H    96.430  66.880  74.840
   H    94.090  66.810  78.130
   H    92.960  69.000  78.250
   H    94.410  69.890  78.550
   H    92.430  66.890  79.810
   H    91.520  68.400  80.120
   H    92.270  67.440  81.420
   H    94.220  70.600  80.980
   H    92.650  70.570  80.360
   H    93.070  69.870  81.920
   H    95.670  65.190  81.260
   H    95.790  65.040  79.600
   H    94.260  65.560  80.350
   H    97.560  68.350  81.070
   H    97.170  66.970  81.960
   H    97.910  66.710  80.400
   H    96.580  66.980  78.090
   H    96.550  68.580  78.570
   H    94.130  69.040  72.650
   H    95.710  68.360  72.740
   H    94.630  71.870  75.210
   H    94.280  70.250  75.810
   H    93.370  71.010  74.460
   H    99.470  69.820  74.880
   H    97.900  67.840  76.690
   H    98.250  69.480  77.140
   H    98.860  66.770  78.440
   H    99.520  68.140  79.370
   H    100.520  66.810  78.940
   H    101.790  69.250  77.750
   H    100.760  70.240  76.750
   H    100.380  70.020  78.480
   H    102.740  68.000  74.310
   H    101.460  68.540  73.170
   H    101.850  69.330  74.750
   H    102.050  65.560  74.450
   H    100.330  65.300  74.710
   H    100.830  66.010  73.220
   H    98.680  66.870  74.570
   H    99.330  67.930  73.300
   H    94.540  71.120  72.210
   H    95.220  72.240  73.350
   H    97.940  72.460  73.010
   H    98.520  72.050  71.440
   H    98.340  70.730  72.590
   H    96.650  69.140  68.560
   H    93.700  68.890  69.200
   H    94.930  67.800  69.910
   H    96.870  66.860  68.080
   H    95.910  65.590  67.320
   H    95.780  65.960  69.030
   H    92.930  66.440  68.830
   H    93.620  65.530  67.480
   H    92.620  67.010  67.300
   H    94.160  71.050  64.900
   H    92.950  70.070  65.880
   H    93.710  69.400  64.490
   H    97.120  69.120  65.860
   H    96.590  70.580  65.100
   H    96.110  69.060  64.450
   H    94.130  70.740  67.740
   H    95.740  71.210  67.310
   H    96.470  72.770  69.870
   H    95.000  72.680  70.720
   H    96.690  74.250  73.510
   H    96.060  75.830  73.040
   H    94.940  74.560  73.190
   H    93.100  76.560  69.890
   H    93.180  73.710  68.830
   H    93.860  75.060  68.060
   H    92.710  73.590  66.180
   H    90.960  73.630  66.180
   H    91.850  72.710  67.470
   H    92.420  76.160  65.990
   H    90.840  76.540  66.670
   H    92.330  77.030  67.480
   H    89.040  75.640  71.560
   H    88.150  75.360  69.980
   H    89.050  74.150  70.680
   H    89.830  77.680  70.480
   H    89.400  77.420  68.810
   H    91.090  77.650  69.280
   H    91.490  74.310  71.050
   H    91.520  75.930  71.610
   H    97.830  74.750  69.970
   H    97.720  75.830  71.380
   H    98.450  74.270  71.570
  