239
PTMA_CHAIN5_frame1
 C    75.120  55.200  66.730
   C    75.370  56.730  66.560
   C    74.060  57.380  67.100
   C    75.560  56.990  65.090
   O    74.710  57.640  64.450
   O    76.570  56.270  64.590
   C    76.790  56.260  63.230
   C    78.220  55.770  63.000
   C    78.660  55.410  61.590
   C    78.750  56.730  60.710
   C    80.030  54.740  61.630
   N    77.660  54.520  60.830
   O    78.040  54.000  59.730
   C    76.210  54.750  61.080
   C    75.650  55.850  60.100
   C    75.360  53.420  60.950
   C    75.850  55.310  62.520
   C    76.700  57.000  67.430
   C    77.490  58.430  67.410
   C    78.200  58.790  66.090
   C    76.470  59.460  67.860
   O    76.180  60.450  67.280
   O    75.990  59.170  69.120
   C    75.030  60.050  69.680
   C    74.200  59.130  70.580
   C    73.070  59.810  71.300
   C    72.010  60.240  70.230
   C    72.360  58.760  72.210
   N    73.520  61.060  72.020
   O    72.770  61.550  72.870
   C    74.670  61.950  71.530
   C    74.100  63.130  70.830
   C    75.450  62.540  72.740
   C    75.640  61.090  70.630
   C    78.590  58.350  68.590
   C    79.810  59.300  68.860
   C    80.900  58.950  67.890
   C    80.310  58.980  70.320
   O    79.600  58.690  71.240
   O    81.600  59.000  70.500
   C    82.200  58.060  71.320
   C    83.340  58.490  72.250
   C    83.840  57.390  73.180
   C    82.880  57.190  74.400
   C    85.300  57.800  73.760
   N    84.080  56.090  72.470
   O    84.830  55.260  72.970
   C    83.620  55.890  71.010
   C    82.860  54.590  70.760
   C    84.780  55.580  70.080
   C    82.760  57.000  70.380
   C    79.480  60.830  68.590
   C    80.090  61.990  69.350
   C    79.520  61.900  70.840
   C    81.640  62.030  69.360
   O    82.310  62.430  70.340
   O    82.080  61.770  68.120
   C    83.560  61.800  67.940
   C    84.140  60.390  67.870
   C    85.650  60.140  67.540
   C    85.830  58.680  67.030
   C    86.500  60.210  68.800
   N    86.190  61.190  66.620
   O    87.150  60.850  65.920
   C    85.520  62.520  66.450
   C    86.230  63.530  67.310
   C    85.640  63.050  64.870
   C    83.990  62.540  66.710
   C    79.500  63.350  68.840
   C    79.800  64.110  67.420
   C    81.160  64.860  67.550
   C    79.780  63.090  66.230
   O    78.750  62.450  65.970
   O    80.890  63.160  65.440
   C    80.800  62.630  64.100
   C    82.020  63.260  63.360
   C    82.140  62.720  61.920
   C    81.140  63.460  61.080
   C    83.490  63.080  61.300
   N    82.020  61.260  61.690
   O    82.380  60.750  60.640
   C    81.310  60.400  62.720
   C    81.930  59.060  62.980
   C    79.900  60.110  62.150
   C    81.100  61.080  64.080
   C    78.620  65.170  67.290
   C    78.400  66.120  65.970
   C    77.300  65.410  65.100
   C    79.610  66.350  65.080
   O    79.790  65.710  64.020
   O    80.380  67.310  65.560
   C    81.620  67.690  64.940
   C    81.520  68.940  64.020
   C    82.850  69.320  63.350
   C    82.660  70.800  62.860
   C    83.200  68.390  62.170
   N    84.090  69.160  64.340
   O    85.160  69.630  63.950
   C    84.020  68.220  65.530
   C    84.770  68.990  66.670
   C    84.770  66.940  65.260
   C    82.600  67.970  66.020
   C    77.890  67.490  66.330
   H    74.090  55.000  66.430
   H    75.750  54.550  66.120
   H    75.250  54.950  67.780
   H    73.960  57.050  68.130
   H    73.210  57.130  66.460
   H    74.130  58.470  67.160
   H    76.860  57.310  62.920
   H    78.890  56.590  63.270
   H    78.410  54.980  63.710
   H    78.620  56.630  59.630
   H    79.710  57.240  60.820
   H    78.110  57.470  61.190
   H    80.790  55.510  61.740
   H    80.180  54.160  60.720
   H    80.210  54.060  62.460
   H    76.280  56.730  60.090
   H    75.540  55.460  59.090
   H    74.650  56.070  60.470
   H    74.320  53.710  61.100
   H    75.540  52.570  61.600
   H    75.320  53.200  59.880
   H    75.880  54.460  63.200
   H    74.850  55.700  62.700
   H    76.340  56.810  68.440
   H    77.480  56.290  67.160
   H    78.590  59.810  66.170
   H    77.620  58.750  65.170
   H    79.080  58.170  65.980
   H    74.340  60.450  68.940
   H    73.850  58.420  69.830
   H    74.840  58.480  71.170
   H    72.240  61.140  69.660
   H    71.910  59.430  69.510
   H    71.020  60.410  70.660
   H    72.210  57.760  71.800
   H    71.430  59.170  72.590
   H    72.900  58.590  73.150
   H    74.830  63.620  70.180
   H    73.360  62.780  70.120
   H    73.720  63.870  71.530
   H    75.550  61.740  73.460
   H    76.500  62.810  72.570
   H    74.960  63.390  73.230
   H    76.290  60.510  71.290
   H    76.350  61.660  70.030
   H    78.980  57.340  68.420
   H    78.070  58.210  69.530
   H    81.900  59.290  68.160
   H    81.040  57.910  67.630
   H    80.740  59.370  66.900
   H    81.460  57.630  72.000
   H    82.960  59.350  72.810
   H    84.180  59.000  71.780
   H    81.930  56.840  74.010
   H    82.640  58.140  74.890
   H    83.310  56.400  75.020
   H    86.020  57.820  72.940
   H    85.290  58.780  74.240
   H    85.490  57.030  74.520
   H    82.540  54.470  69.720
   H    81.900  54.610  71.270
   H    83.410  53.690  71.040
   H    85.530  54.900  70.490
   H    84.500  55.370  69.050
   H    85.400  56.460  69.890
   H    81.950  56.470  69.890
   H    83.350  57.490  69.600
   H    78.410  61.030  68.540
   H    79.800  61.000  67.560
   H    78.670  61.240  71.000
   H    79.290  62.860  71.300
   H    80.270  61.470  71.500
   H    84.040  62.300  68.790
   H    83.770  59.900  66.980
   H    83.870  59.870  68.790
   H    86.850  58.440  66.740
   H    85.280  58.510  66.110
   H    85.520  57.910  67.740
   H    87.480  60.590  68.520
   H    86.030  60.900  69.500
   H    86.540  59.330  69.440
   H    86.000  63.360  68.360
   H    87.300  63.340  67.220
   H    86.030  64.560  67.010
   H    86.690  63.140  64.590
   H    85.190  62.450  64.080
   H    85.260  64.060  64.730
   H    83.470  62.130  65.850
   H    83.740  63.600  66.790
   H    78.410  63.300  68.910
   H    79.720  64.180  69.510
   H    81.590  65.110  66.580
   H    81.970  64.330  68.060
   H    81.070  65.790  68.110
   H    79.780  62.770  63.740
   H    82.970  62.970  63.800
   H    81.900  64.340  63.330
   H    81.310  64.510  61.330
   H    80.080  63.250  61.210
   H    81.240  63.290  60.010
   H    83.500  63.160  60.210
   H    84.260  62.390  61.630
   H    83.790  64.090  61.590
   H    82.750  59.000  63.700
   H    82.350  58.520  62.130
   H    81.100  58.400  63.230
   H    79.350  61.050  62.140
   H    79.340  59.290  62.590
   H    80.070  59.700  61.150
   H    81.910  60.980  64.800
   H    80.360  60.570  64.700
   H    77.650  64.730  67.510
   H    78.760  65.780  68.190
   H    77.610  64.470  64.660
   H    76.370  65.200  65.630
   H    76.880  66.060  64.330
   H    81.830  66.790  64.360
   H    81.170  69.830  64.550
   H    80.720  68.810  63.290
   H    81.810  70.920  62.200
   H    83.510  71.120  62.260
   H    82.580  71.480  63.710
   H    83.870  68.720  61.380
   H    83.820  67.540  62.460
   H    82.340  67.990  61.650
   H    84.240  69.860  67.060
   H    84.890  68.290  67.490
   H    85.780  69.280  66.370
   H    85.010  66.610  66.270
   H    85.650  66.990  64.610
   H    84.120  66.230  64.750
   H    82.210  68.840  66.550
   H    82.660  67.190  66.780
   H    78.510  68.000  67.060
   H    77.760  68.100  65.430
   H    76.920  67.510  66.820
  