239
PTMA_CHAIN2_time0point5
 C    90.280  17.130  88.390
   C    89.390  18.420  88.610
   C    90.170  19.340  89.520
   C    88.210  17.860  89.380
   O    87.930  18.080  90.530
   O    87.450  17.010  88.560
   C    86.600  16.100  89.120
   C    85.200  16.590  89.250
   C    84.110  15.670  89.750
   C    84.190  15.590  91.300
   C    82.750  16.190  89.260
   N    84.340  14.410  88.920
   H    83.460  13.850  88.620
   C    85.630  13.760  88.770
   C    86.020  13.040  90.090
   C    85.420  12.630  87.730
   C    86.540  14.820  88.260
   C    89.090  18.850  87.110
   C    88.360  20.200  86.710
   C    87.010  20.230  87.450
   C    89.260  21.420  87.020
   O    88.830  22.580  87.260
   O    90.590  21.120  86.840
   C    91.500  22.100  86.390
   C    92.880  21.570  86.790
   C    94.080  22.020  86.010
   C    95.190  22.460  86.960
   C    94.600  20.860  85.120
   N    93.730  23.180  85.130
   H    94.560  23.700  84.650
   C    92.480  23.270  84.390
   C    92.040  24.720  84.560
   C    92.740  23.100  82.870
   C    91.450  22.300  84.840
   C    88.220  20.200  85.150
   C    87.110  21.040  84.360
   C    85.740  20.260  84.590
   C    87.730  20.890  82.930
   O    88.600  21.710  82.560
   O    87.460  19.760  82.190
   C    88.040  19.580  80.890
   C    87.360  20.360  79.680
   C    88.220  20.170  78.390
   C    89.400  21.110  78.350
   C    87.310  20.260  77.100
   N    88.850  18.830  78.480
   H    89.490  18.560  77.640
   C    88.220  17.720  79.230
   C    89.250  16.630  79.360
   C    86.840  17.180  78.630
   C    87.910  18.130  80.640
   C    86.980  22.550  84.760
   C    86.070  23.560  83.950
   C    86.630  23.830  82.510
   C    84.600  23.110  83.720
   O    83.620  23.690  84.180
   O    84.450  22.100  82.780
   C    83.180  21.830  82.230
   C    83.360  21.020  80.970
   C    82.050  20.440  80.370
   C    82.220  18.940  80.060
   C    81.670  21.230  79.060
   N    80.840  20.660  81.260
   H    79.970  20.100  80.920
   C    80.950  20.940  82.670
   C    80.140  22.200  82.930
   C    80.170  19.730  83.290
   C    82.390  20.970  83.130
   C    86.240  25.010  84.660
   C    85.700  25.540  86.060
   C    85.320  27.050  85.990
   C    84.330  24.970  86.510
   O    83.210  25.550  86.470
   O    84.560  23.770  87.040
   C    83.530  23.110  87.850
   C    82.640  22.160  87.090
   C    81.630  21.250  87.910
   C    80.120  21.470  87.590
   C    82.050  19.780  87.600
   N    81.820  21.570  89.330
   H    81.000  22.180  89.700
   C    83.190  21.670  89.930
   C    83.580  20.340  90.570
   C    83.210  22.670  91.080
   C    84.140  22.200  88.920
   C    86.660  25.360  87.220
   C    87.740  26.440  87.670
   C    88.740  26.720  86.530
   C    88.470  25.830  88.920
   O    87.810  25.120  89.740
   O    89.770  26.130  89.110
   C    90.510  25.570  90.240
   C    91.320  24.420  89.800
   C    92.420  23.990  90.890
   C    93.700  23.640  90.160
   C    91.930  22.690  91.550
   N    92.800  25.030  91.940
   O    93.700  24.750  92.730
   C    92.140  26.380  92.070
   C    93.250  27.410  92.300
   C    91.170  26.480  93.310
   C    91.400  26.670  90.730
   C    87.240  27.810  88.270
   H    91.150  17.430  87.810
   H    90.530  16.600  89.310
   H    89.690  16.420  87.810
   H    91.080  19.710  89.050
   H    90.420  18.830  90.450
   H    89.610  20.240  89.760
   H    86.910  15.710  90.090
   H    85.140  17.500  89.850
   H    84.950  16.880  88.230
   H    85.190  15.860  91.650
   H    84.060  14.570  91.670
   H    83.420  16.200  91.770
   H    82.800  17.280  89.250
   H    81.940  15.710  89.800
   H    82.530  15.930  88.230
   H    85.150  12.670  90.630
   H    86.710  12.220  89.910
   H    86.490  13.760  90.760
   H    84.790  12.970  86.910
   H    84.850  11.830  88.200
   H    86.330  12.160  87.360
   H    86.210  15.070  87.250
   H    87.540  14.400  88.330
   H    90.060  18.800  86.630
   H    88.500  18.060  86.640
   H    86.360  21.080  87.250
   H    87.220  20.420  88.500
   H    86.470  19.280  87.360
   H    91.230  23.080  86.800
   H    93.010  21.730  87.860
   H    92.930  20.490  86.690
   H    94.890  23.370  87.480
   H    95.400  21.670  87.690
   H    96.160  22.510  86.470
   H    95.250  21.270  84.350
   H    93.750  20.450  84.570
   H    95.130  20.010  85.540
   H    91.100  24.920  84.040
   H    91.810  24.860  85.610
   H    92.840  25.410  84.310
   H    93.030  23.990  82.300
   H    93.450  22.280  82.780
   H    91.840  22.790  82.340
   H    91.530  21.330  84.370
   H    90.470  22.660  84.520
   H    88.130  19.190  84.750
   H    89.210  20.530  84.840
   H    86.030  19.320  85.070
   H    85.060  20.800  85.250
   H    85.200  19.960  83.690
   H    89.120  19.670  80.950
   H    87.220  21.440  79.740
   H    86.360  19.950  79.540
   H    90.160  20.960  77.590
   H    90.090  21.030  79.190
   H    89.070  22.140  78.270
   H    86.620  19.420  77.040
   H    86.730  21.180  77.190
   H    87.850  20.340  76.160
   H    88.900  15.770  79.940
   H    90.150  16.970  79.870
   H    89.660  16.310  78.410
   H    86.030  17.830  78.970
   H    86.870  17.190  77.540
   H    86.660  16.220  79.100
   H    88.480  17.590  81.390
   H    86.870  17.850  80.810
   H    87.980  22.970  84.710
   H    86.710  22.590  85.810
   H    87.670  24.150  82.510
   H    86.020  24.520  81.930
   H    86.620  22.950  81.860
   H    82.720  22.770  81.950
   H    84.080  20.250  81.260
   H    83.910  21.640  80.250
   H    83.180  18.870  79.560
   H    81.340  18.590  79.510
   H    82.260  18.360  80.980
   H    80.770  20.790  78.620
   H    81.500  22.270  79.340
   H    82.450  21.130  78.300
   H    80.440  22.620  83.890
   H    80.360  22.920  82.130
   H    79.070  21.980  82.990
   H    80.570  18.760  83.010
   H    80.140  19.840  84.370
   H    79.130  19.850  82.970
   H    82.820  19.970  83.140
   H    82.360  21.360  84.150
   H    87.300  25.270  84.630
   H    85.770  25.630  83.890
   H    86.160  27.660  85.650
   H    84.920  27.420  86.930
   H    84.600  27.180  85.190
   H    83.090  23.900  88.460
   H    83.320  21.660  86.410
   H    82.040  22.790  86.430
   H    80.000  21.000  86.620
   H    79.890  22.530  87.510
   H    79.420  20.960  88.250
   H    81.910  19.570  86.540
   H    81.450  19.100  88.190
   H    83.110  19.680  87.850
   H    84.330  20.450  91.360
   H    83.950  19.540  89.930
   H    82.670  19.830  90.890
   H    82.670  23.550  90.720
   H    84.220  23.000  91.340
   H    82.700  22.250  91.940
   H    84.530  21.310  88.410
   H    85.040  22.630  89.370
   H    85.980  25.290  88.070
   H    87.100  24.370  87.090
   H    88.300  26.970  85.560
   H    89.500  27.440  86.820
   H    89.180  25.740  86.330
   H    89.890  25.340  91.100
   H    91.750  24.540  88.800
   H    90.640  23.580  89.660
   H    93.800  24.310  89.310
   H    93.740  22.560  90.010
   H    94.630  23.910  90.660
   H    92.660  22.260  92.240
   H    90.980  22.720  92.080
   H    91.800  22.020  90.700
   H    92.840  28.390  92.530
   H    93.850  27.070  93.140
   H    93.870  27.430  91.400
   H    91.180  27.530  93.600
   H    91.750  25.940  94.070
   H    90.210  25.980  93.220
   H    92.150  26.950  90.000
   H    90.850  27.600  90.860
   H    86.370  27.630  88.890
   H    88.040  28.220  88.880
   H    86.860  28.510  87.520
  