239
PTMA_CHAIN3_time0point0005
 C    105.500  54.520  68.860
   C    106.340  55.830  68.820
   C    107.810  55.400  68.760
   C    106.060  56.520  70.170
   O    106.880  56.600  71.080
   O    104.760  56.880  70.280
   C    104.240  57.120  71.610
   C    104.550  58.520  72.110
   C    104.040  58.710  73.570
   C    105.160  58.230  74.530
   C    103.860  60.230  73.800
   N    102.850  57.850  73.840
   O    102.130  58.280  75.000
   C    101.930  57.570  72.700
   C    100.840  56.540  73.120
   C    101.190  58.820  72.170
   C    102.730  56.910  71.540
   C    105.850  56.650  67.580
   C    106.750  57.790  66.920
   C    107.170  58.790  67.990
   C    107.960  57.130  66.220
   O    109.120  57.510  66.350
   O    107.570  56.110  65.400
   C    108.530  55.540  64.470
   C    108.990  54.160  64.940
   C    108.280  52.960  64.250
   C    108.960  51.680  64.820
   C    106.810  52.890  64.740
   N    108.220  53.080  62.760
   O    109.010  52.090  62.100
   C    108.440  54.430  62.160
   C    109.910  54.780  61.830
   C    107.620  54.480  60.840
   C    107.860  55.510  63.090
   C    105.860  58.440  65.800
   C    106.100  59.870  65.120
   C    105.420  60.920  66.020
   C    105.350  59.680  63.780
   O    105.780  58.940  62.890
   O    104.130  60.280  63.730
   C    103.280  59.890  62.610
   C    103.690  60.610  61.330
   C    102.780  60.200  60.140
   C    103.180  58.780  59.670
   C    103.150  61.180  58.980
   N    101.350  60.400  60.490
   O    100.490  59.950  59.420
   C    100.850  59.910  61.810
   C    100.540  58.410  61.910
   C    99.530  60.680  62.120
   C    101.850  60.310  62.940
   C    107.630  60.260  64.890
   C    108.220  61.230  63.810
   C    107.820  60.800  62.360
   C    107.860  62.730  63.790
   O    108.600  63.560  63.280
   O    106.600  62.990  64.200
   C    106.080  64.310  63.850
   C    104.570  64.240  63.600
   C    103.670  65.070  64.560
   C    103.540  64.340  65.920
   C    102.230  65.010  63.960
   N    104.200  66.420  64.850
   O    103.440  67.470  64.240
   C    105.680  66.660  64.730
   C    106.110  67.310  63.390
   C    106.080  67.600  65.880
   C    106.460  65.340  64.910
   C    109.800  61.110  63.800
   C    110.770  61.480  64.980
   C    112.090  61.950  64.300
   C    110.330  62.740  65.770
   O    110.540  63.890  65.390
   O    109.770  62.440  66.970
   C    110.010  63.440  68.000
   C    108.890  64.460  68.100
   C    109.280  65.590  69.120
   C    110.050  66.680  68.310
   C    107.970  66.230  69.620
   N    110.220  65.060  70.150
   O    110.310  65.950  71.270
   C    110.050  63.650  70.580
   C    108.720  63.350  71.320
   C    111.200  63.220  71.520
   C    110.140  62.700  69.350
   C    111.090  60.290  65.970
   C    112.130  59.140  65.680
   C    111.810  58.390  64.380
   C    112.130  58.170  66.900
   O    112.030  58.550  68.060
   O    112.470  56.900  66.530
   C    112.890  55.970  67.560
   C    112.370  54.590  67.200
   C    112.970  53.470  68.090
   C    112.710  52.140  67.320
   C    112.160  53.410  69.410
   N    114.380  53.740  68.480
   O    115.110  52.520  68.750
   C    115.170  54.670  67.650
   C    115.440  54.180  66.210
   C    116.560  54.960  68.300
   C    114.430  56.030  67.630
   C    113.590  59.630  65.650
   H    105.710  53.890  67.990
   H    105.720  53.930  69.750
   H    104.440  54.750  68.860
   H    108.010  54.830  67.850
   H    108.070  54.770  69.610
   H    108.500  56.250  68.820
   H    104.670  56.380  72.280
   H    105.620  58.730  72.050
   H    104.110  59.250  71.430
   H    105.350  57.170  74.420
   H    104.920  58.410  75.580
   H    106.100  58.760  74.340
   H    104.760  60.790  73.530
   H    103.650  60.480  74.840
   H    103.030  60.650  73.220
   H    100.120  56.950  73.820
   H    100.270  56.230  72.240
   H    101.280  55.640  73.550
   H    101.890  59.530  71.720
   H    100.640  59.350  72.940
   H    100.470  58.520  71.400
   H    102.350  57.290  70.590
   H    102.570  55.830  71.480
   H    105.580  55.930  66.810
   H    104.910  57.120  67.840
   H    107.820  59.580  67.620
   H    107.750  58.320  68.790
   H    106.290  59.240  68.460
   H    109.410  56.180  64.420
   H    110.060  54.080  64.720
   H    108.900  54.080  66.020
   H    110.020  51.650  64.560
   H    108.880  51.640  65.900
   H    108.490  50.770  64.430
   H    106.310  52.010  64.330
   H    106.200  53.740  64.450
   H    106.770  52.820  65.830
   H    110.000  55.820  61.510
   H    110.560  54.660  62.690
   H    110.290  54.160  61.020
   H    108.010  53.790  60.090
   H    106.570  54.220  60.990
   H    107.640  55.480  60.410
   H    106.780  55.400  63.190
   H    107.980  56.500  62.640
   H    104.830  58.470  66.160
   H    105.810  57.720  64.990
   H    106.030  61.180  66.890
   H    105.160  61.840  65.490
   H    104.470  60.560  66.410
   H    103.340  58.800  62.510
   H    104.720  60.390  61.080
   H    103.640  61.690  61.500
   H    102.630  58.480  58.780
   H    103.020  58.020  60.430
   H    104.250  58.740  59.420
   H    102.880  62.210  59.220
   H    104.220  61.170  58.750
   H    102.660  60.930  58.040
   H    100.150  58.180  62.900
   H    101.430  57.800  61.760
   H    99.790  58.080  61.190
   H    99.680  61.760  62.070
   H    98.720  60.410  61.450
   H    99.200  60.450  63.140
   H    101.550  59.840  63.880
   H    101.820  61.390  63.100
   H    108.120  59.300  64.720
   H    108.000  60.640  65.840
   H    107.990  59.740  62.210
   H    108.410  61.330  61.610
   H    106.790  61.070  62.110
   H    106.520  64.610  62.900
   H    104.260  63.200  63.580
   H    104.390  64.620  62.590
   H    103.180  63.320  65.790
   H    102.830  64.840  66.580
   H    104.480  64.250  66.460
   H    101.510  65.530  64.590
   H    102.180  65.440  62.960
   H    101.900  63.980  63.860
   H    107.200  67.330  63.310
   H    105.740  66.780  62.510
   H    105.750  68.340  63.320
   H    105.800  67.180  66.850
   H    107.150  67.770  65.890
   H    105.610  68.580  65.800
   H    106.320  64.920  65.910
   H    107.530  65.550  64.850
   H    110.000  60.070  63.530
   H    110.170  61.660  62.930
   H    112.470  61.200  63.610
   H    112.870  62.200  65.030
   H    111.940  62.840  63.700
   H    110.960  63.930  67.800
   H    107.960  63.970  68.390
   H    108.690  64.880  67.110
   H    109.450  67.060  67.480
   H    110.980  66.300  67.880
   H    110.320  67.530  68.940
   H    107.350  66.520  68.780
   H    108.160  67.130  70.220
   H    107.370  65.570  70.250
   H    108.590  63.990  72.200
   H    108.690  62.320  71.690
   H    107.850  63.450  70.670
   H    112.180  63.430  71.090
   H    111.180  62.150  71.720
   H    111.160  63.720  72.490
   H    109.380  61.920  69.400
   H    111.090  62.180  69.310
   H    111.420  60.750  66.900
   H    110.150  59.820  66.250
   H    111.940  59.030  63.510
   H    112.470  57.530  64.230
   H    110.790  58.010  64.370
   H    112.460  56.250  68.520
   H    112.570  54.410  66.140
   H    111.290  54.600  67.270
   H    113.310  52.070  66.410
   H    111.650  52.050  67.050
   H    112.930  51.250  67.910
   H    112.480  52.570  70.030
   H    112.260  54.320  69.990
   H    111.090  53.270  69.210
   H    116.050  54.900  65.670
   H    115.980  53.230  66.190
   H    114.540  54.030  65.610
   H    117.060  55.770  67.770
   H    117.210  54.090  68.240
   H    116.450  55.250  69.340
   H    114.840  56.640  66.830
   H    114.660  56.580  68.540
   H    113.770  60.370  66.430
   H    114.280  58.810  65.820
   H    113.880  60.070  64.690
  