239
PTMA_CHAIN3_time0point005
 C    105.530  54.520  68.850
   C    106.370  55.820  68.830
   C    107.840  55.400  68.780
   C    106.070  56.530  70.170
   O    106.870  56.640  71.100
   O    104.750  56.880  70.270
   C    104.240  57.140  71.590
   C    104.540  58.560  72.140
   C    104.060  58.720  73.590
   C    105.200  58.260  74.510
   C    103.920  60.260  73.800
   N    102.830  57.930  73.930
   O    102.190  58.270  74.960
   C    101.960  57.550  72.730
   C    100.840  56.530  73.160
   C    101.240  58.820  72.210
   C    102.760  56.910  71.520
   C    105.820  56.660  67.590
   C    106.740  57.840  66.930
   C    107.170  58.810  68.000
   C    107.930  57.130  66.220
   O    109.130  57.500  66.350
   O    107.550  56.140  65.400
   C    108.510  55.560  64.490
   C    108.990  54.130  64.940
   C    108.290  52.970  64.290
   C    108.980  51.720  64.870
   C    106.820  52.930  64.740
   N    108.280  53.030  62.690
   O    108.980  52.170  62.140
   C    108.410  54.480  62.180
   C    109.920  54.800  61.820
   C    107.620  54.480  60.870
   C    107.910  55.550  63.110
   C    105.850  58.420  65.820
   C    106.130  59.900  65.160
   C    105.430  60.950  66.060
   C    105.340  59.690  63.770
   O    105.820  58.890  62.910
   O    104.140  60.320  63.730
   C    103.290  59.880  62.620
   C    103.740  60.640  61.350
   C    102.810  60.240  60.190
   C    103.230  58.780  59.650
   C    103.160  61.190  58.970
   N    101.330  60.330  60.420
   O    100.550  59.950  59.500
   C    100.890  59.880  61.860
   C    100.550  58.410  61.930
   C    99.560  60.690  62.070
   C    101.850  60.370  62.910
   C    107.700  60.310  64.940
   C    108.250  61.250  63.840
   C    107.830  60.830  62.400
   C    107.880  62.750  63.830
   O    108.590  63.560  63.280
   O    106.620  63.020  64.190
   C    106.120  64.290  63.810
   C    104.570  64.270  63.590
   C    103.660  65.100  64.580
   C    103.510  64.410  65.930
   C    102.250  65.010  63.990
   N    104.160  66.510  64.760
   O    103.470  67.430  64.310
   C    105.740  66.680  64.710
   C    106.130  67.340  63.390
   C    106.070  67.620  65.900
   C    106.450  65.370  64.940
   C    109.840  61.160  63.780
   C    110.790  61.510  64.940
   C    112.140  61.920  64.300
   C    110.300  62.730  65.800
   O    110.570  63.880  65.410
   O    109.780  62.430  66.980
   C    109.990  63.420  67.990
   C    108.890  64.460  68.080
   C    109.290  65.610  69.150
   C    110.040  66.700  68.330
   C    107.970  66.250  69.650
   N    110.220  65.110  70.210
   O    110.350  65.890  71.210
   C    110.110  63.620  70.600
   C    108.740  63.340  71.360
   C    111.190  63.240  71.520
   C    110.160  62.740  69.380
   C    111.100  60.280  65.990
   C    112.120  59.130  65.710
   C    111.810  58.380  64.380
   C    112.140  58.120  66.890
   O    111.990  58.560  68.020
   O    112.530  56.920  66.550
   C    112.920  55.990  67.510
   C    112.350  54.590  67.220
   C    112.990  53.520  68.120
   C    112.680  52.150  67.320
   C    112.130  53.410  69.440
   N    114.440  53.710  68.470
   O    115.050  52.570  68.730
   C    115.170  54.690  67.630
   C    115.470  54.140  66.210
   C    116.560  54.970  68.270
   C    114.430  56.010  67.640
   C    113.580  59.640  65.610
   H    105.690  53.900  67.970
   H    105.720  53.860  69.700
   H    104.490  54.860  68.900
   H    108.000  54.820  67.870
   H    108.100  54.840  69.680
   H    108.520  56.230  68.960
   H    104.650  56.430  72.310
   H    105.620  58.720  72.120
   H    104.310  59.300  71.380
   H    105.280  57.180  74.380
   H    105.000  58.300  75.580
   H    106.150  58.790  74.440
   H    104.790  60.870  73.560
   H    103.600  60.570  74.790
   H    103.020  60.630  73.310
   H    100.190  56.960  73.920
   H    100.200  56.360  72.300
   H    101.240  55.580  73.500
   H    102.020  59.470  71.840
   H    100.720  59.430  72.950
   H    100.540  58.480  71.450
   H    102.310  57.320  70.620
   H    102.650  55.830  71.420
   H    105.520  55.870  66.890
   H    104.860  57.140  67.760
   H    107.870  59.610  67.770
   H    107.680  58.310  68.820
   H    106.260  59.150  68.500
   H    109.470  56.080  64.490
   H    110.040  54.080  64.640
   H    109.000  54.090  66.030
   H    110.010  51.760  64.530
   H    108.840  51.670  65.950
   H    108.530  50.860  64.380
   H    106.350  52.050  64.300
   H    106.160  53.730  64.390
   H    106.800  52.940  65.830
   H    110.210  55.810  61.530
   H    110.440  54.650  62.760
   H    110.150  54.060  61.050
   H    107.950  53.730  60.150
   H    106.550  54.250  60.830
   H    107.700  55.460  60.410
   H    106.830  55.460  63.120
   H    108.080  56.510  62.630
   H    104.810  58.490  66.140
   H    105.780  57.730  64.980
   H    105.980  61.080  67.000
   H    105.130  61.890  65.600
   H    104.460  60.570  66.380
   H    103.400  58.800  62.500
   H    104.720  60.280  61.020
   H    103.680  61.700  61.570
   H    102.620  58.530  58.790
   H    103.150  58.010  60.420
   H    104.310  58.750  59.510
   H    102.930  62.250  59.110
   H    104.150  61.160  58.520
   H    102.680  60.970  58.020
   H    100.160  58.300  62.940
   H    101.510  57.900  61.800
   H    99.870  58.040  61.170
   H    99.690  61.770  62.020
   H    98.700  60.400  61.460
   H    99.280  60.430  63.100
   H    101.590  59.820  63.810
   H    101.860  61.450  62.970
   H    108.060  59.290  64.790
   H    108.020  60.740  65.890
   H    108.080  59.790  62.190
   H    108.340  61.390  61.600
   H    106.860  61.110  61.990
   H    106.480  64.700  62.860
   H    104.310  63.210  63.580
   H    104.260  64.660  62.620
   H    103.140  63.390  65.880
   H    102.840  64.890  66.640
   H    104.450  64.190  66.430
   H    101.480  65.580  64.500
   H    102.160  65.330  62.960
   H    102.000  63.950  63.970
   H    107.210  67.330  63.300
   H    105.810  66.890  62.450
   H    105.630  68.300  63.450
   H    105.850  67.120  66.850
   H    107.130  67.870  65.880
   H    105.530  68.570  65.860
   H    106.210  64.880  65.890
   H    107.510  65.620  64.930
   H    109.890  60.090  63.570
   H    110.320  61.600  62.910
   H    112.450  61.160  63.570
   H    112.990  62.210  64.910
   H    111.910  62.780  63.670
   H    110.930  63.970  67.880
   H    107.910  64.030  68.280
   H    108.840  64.930  67.090
   H    109.460  67.060  67.480
   H    110.980  66.400  67.880
   H    110.380  67.510  68.970
   H    107.400  66.500  68.760
   H    108.170  67.110  70.300
   H    107.340  65.710  70.350
   H    108.670  63.870  72.310
   H    108.620  62.310  71.690
   H    107.880  63.420  70.690
   H    112.180  63.570  71.210
   H    111.310  62.160  71.620
   H    111.140  63.670  72.510
   H    109.380  61.980  69.480
   H    111.100  62.200  69.330
   H    111.320  60.760  66.940
   H    110.220  59.730  66.310
   H    112.010  59.040  63.530
   H    112.400  57.470  64.290
   H    110.780  58.060  64.270
   H    112.410  56.140  68.460
   H    112.480  54.340  66.170
   H    111.270  54.580  67.340
   H    113.310  52.080  66.430
   H    111.620  51.970  67.160
   H    112.950  51.200  67.780
   H    112.570  52.570  69.970
   H    112.220  54.330  70.020
   H    111.080  53.210  69.260
   H    116.050  54.880  65.650
   H    115.980  53.170  66.150
   H    114.600  53.990  65.570
   H    117.100  55.750  67.740
   H    117.180  54.080  68.190
   H    116.460  55.180  69.340
   H    114.960  56.590  66.880
   H    114.680  56.550  68.560
   H    113.680  60.370  66.410
   H    114.210  58.770  65.820
   H    113.970  60.110  64.710
  