239
PTMA_CHAIN3_time0point05
 C    105.630  54.450  68.840
   C    106.330  55.820  68.860
   C    107.830  55.460  68.870
   C    106.020  56.570  70.190
   O    106.960  56.870  70.950
   O    104.740  56.930  70.390
   C    104.330  57.220  71.690
   C    104.580  58.680  72.100
   C    104.350  58.930  73.500
   C    105.320  58.310  74.530
   C    104.260  60.380  73.930
   N    103.030  58.150  73.940
   O    102.630  58.260  75.070
   C    102.010  57.690  72.790
   C    101.120  56.610  73.500
   C    101.020  58.890  72.310
   C    102.820  57.060  71.710
   C    105.860  56.630  67.640
   C    106.720  57.810  67.060
   C    107.140  58.800  68.140
   C    107.890  57.190  66.260
   O    109.010  57.670  66.450
   O    107.550  56.220  65.400
   C    108.550  55.800  64.500
   C    108.920  54.400  65.110
   C    108.220  53.260  64.470
   C    108.870  51.840  64.910
   C    106.730  53.110  64.580
   N    108.550  53.260  62.860
   O    108.740  52.260  62.260
   C    108.540  54.660  62.130
   C    110.010  54.970  61.530
   C    107.580  54.520  61.000
   C    108.030  55.710  63.010
   C    105.780  58.600  66.080
   C    106.150  59.990  65.330
   C    105.410  61.100  66.160
   C    105.510  59.790  63.950
   O    105.930  58.800  63.320
   O    104.370  60.520  63.710
   C    103.560  60.140  62.610
   C    103.910  60.700  61.230
   C    103.090  60.140  60.090
   C    103.790  58.770  59.470
   C    103.070  61.230  58.970
   N    101.580  59.890  60.370
   O    100.850  59.740  59.500
   C    101.060  59.900  61.890
   C    100.700  58.390  62.310
   C    99.790  60.630  61.750
   C    102.060  60.510  62.830
   C    107.660  60.490  65.070
   C    108.210  61.410  63.850
   C    107.910  60.900  62.460
   C    107.930  62.910  63.760
   O    108.710  63.760  63.280
   O    106.690  63.170  64.080
   C    106.080  64.400  63.780
   C    104.500  64.140  63.750
   C    103.640  65.160  64.500
   C    103.480  64.960  66.000
   C    102.210  65.200  63.860
   N    104.160  66.600  64.540
   O    103.440  67.470  64.690
   C    105.740  66.820  64.640
   C    106.310  67.670  63.460
   C    105.840  67.700  65.880
   C    106.470  65.610  64.830
   C    109.850  61.180  63.840
   C    110.900  61.470  65.000
   C    112.180  61.910  64.220
   C    110.530  62.710  65.880
   O    110.850  63.820  65.500
   O    109.890  62.500  67.000
   C    110.010  63.450  68.050
   C    108.890  64.460  68.220
   C    109.210  65.570  69.200
   C    110.090  66.760  68.580
   C    107.950  66.340  69.750
   N    110.030  65.060  70.370
   O    110.740  65.850  70.920
   C    110.050  63.490  70.700
   C    108.860  63.080  71.600
   C    111.350  63.330  71.500
   C    110.100  62.720  69.420
   C    111.230  60.240  65.910
   C    112.150  58.990  65.520
   C    111.670  58.330  64.230
   C    112.080  58.070  66.740
   O    111.570  58.360  67.820
   O    112.680  56.980  66.570
   C    113.040  56.100  67.580
   C    112.310  54.760  67.310
   C    112.810  53.540  68.010
   C    112.370  52.140  67.400
   C    112.280  53.510  69.530
   N    114.380  53.520  68.180
   O    114.940  52.680  68.860
   C    115.240  54.560  67.420
   C    115.510  54.080  65.990
   C    116.560  54.690  68.140
   C    114.570  55.930  67.500
   C    113.670  59.470  65.500
   H    105.770  53.930  67.900
   H    105.890  53.790  69.670
   H    104.570  54.670  68.940
   H    108.090  54.810  68.030
   H    108.090  54.920  69.780
   H    108.510  56.300  68.890
   H    104.850  56.520  72.340
   H    105.650  58.740  71.870
   H    104.170  59.410  71.400
   H    105.640  57.330  74.190
   H    105.040  58.160  75.580
   H    106.210  58.920  74.650
   H    105.220  60.880  73.750
   H    104.030  60.560  74.980
   H    103.470  60.850  73.340
   H    101.030  56.610  74.590
   H    100.120  56.720  73.080
   H    101.540  55.630  73.260
   H    101.640  59.620  71.780
   H    100.440  59.490  73.010
   H    100.310  58.490  71.590
   H    102.450  57.480  70.770
   H    102.620  55.990  71.600
   H    105.600  55.940  66.840
   H    104.830  56.950  67.840
   H    107.650  59.730  67.910
   H    107.820  58.370  68.870
   H    106.280  59.070  68.750
   H    109.370  56.520  64.510
   H    110.010  54.450  65.010
   H    108.690  54.360  66.170
   H    109.940  51.800  64.730
   H    108.620  51.600  65.950
   H    108.450  50.990  64.360
   H    106.400  52.080  64.450
   H    106.180  53.620  63.790
   H    106.410  53.460  65.560
   H    110.080  55.850  60.900
   H    110.740  54.850  62.330
   H    110.220  54.130  60.860
   H    107.680  53.560  60.490
   H    106.520  54.650  61.210
   H    107.880  55.220  60.220
   H    106.950  55.630  63.160
   H    108.020  56.680  62.500
   H    104.880  58.800  66.660
   H    105.470  57.770  65.440
   H    105.600  61.000  67.230
   H    105.620  62.140  65.900
   H    104.320  61.020  66.100
   H    103.630  59.060  62.650
   H    104.970  60.470  61.090
   H    103.760  61.770  61.400
   H    103.290  58.380  58.580
   H    103.870  57.960  60.190
   H    104.800  59.070  59.180
   H    102.960  62.260  59.320
   H    103.980  61.200  58.360
   H    102.410  61.190  58.110
   H    100.070  58.450  63.190
   H    101.590  57.800  62.560
   H    100.130  57.770  61.620
   H    100.030  61.530  61.180
   H    99.040  60.030  61.240
   H    99.560  60.800  62.810
   H    101.820  60.210  63.850
   H    102.170  61.590  62.850
   H    108.220  59.560  64.960
   H    107.900  60.850  66.070
   H    107.960  59.820  62.370
   H    108.460  61.310  61.610
   H    106.970  61.320  62.100
   H    106.430  64.730  62.800
   H    104.140  63.170  64.100
   H    104.390  64.070  62.670
   H    102.720  64.220  66.250
   H    103.250  65.790  66.680
   H    104.380  64.500  66.390
   H    101.470  65.870  64.290
   H    102.270  65.420  62.790
   H    101.800  64.190  63.880
   H    107.360  67.880  63.650
   H    106.190  67.340  62.430
   H    105.840  68.650  63.460
   H    105.970  67.040  66.740
   H    106.710  68.350  65.790
   H    104.990  68.320  66.160
   H    106.410  65.160  65.820
   H    107.520  65.800  64.600
   H    109.870  60.110  63.600
   H    110.240  61.690  62.960
   H    112.440  61.210  63.430
   H    113.040  62.020  64.890
   H    112.100  62.860  63.690
   H    110.970  63.940  67.940
   H    107.960  63.950  68.470
   H    108.740  64.930  67.240
   H    109.500  67.290  67.840
   H    110.960  66.400  68.030
   H    110.510  67.520  69.240
   H    107.430  66.730  68.880
   H    108.080  67.180  70.440
   H    107.190  65.740  70.250
   H    108.730  63.650  72.520
   H    108.930  62.030  71.880
   H    107.910  63.170  71.070
   H    112.220  63.990  71.490
   H    111.800  62.340  71.350
   H    111.120  63.320  72.570
   H    109.170  62.140  69.350
   H    110.880  61.970  69.300
   H    111.570  60.620  66.870
   H    110.240  59.870  66.170
   H    111.850  58.990  63.380
   H    112.230  57.400  64.120
   H    110.610  58.090  64.310
   H    112.790  56.530  68.550
   H    112.400  54.690  66.220
   H    111.270  55.060  67.410
   H    112.730  52.050  66.380
   H    111.290  51.990  67.410
   H    112.740  51.220  67.870
   H    112.870  52.800  70.100
   H    112.270  54.450  70.080
   H    111.310  53.010  69.500
   H    116.230  54.760  65.540
   H    115.960  53.090  65.840
   H    114.640  54.090  65.340
   H    117.100  55.490  67.640
   H    117.060  53.740  67.950
   H    116.420  54.830  69.210
   H    114.930  56.480  66.640
   H    114.910  56.580  68.300
   H    113.810  60.280  66.220
   H    114.410  58.700  65.750
   H    113.980  59.840  64.530
  