239
PTMA_CHAIN9_time2
 C    79.300  41.790  51.120
   C    79.010  41.180  52.520
   C    80.420  41.030  53.160
   C    78.280  39.800  52.380
   O    78.510  38.850  53.120
   O    77.260  39.870  51.570
   C    76.620  38.570  51.210
   C    75.520  38.390  52.290
   C    74.700  37.090  52.020
   C    75.230  35.880  52.810
   C    73.200  37.370  52.360
   N    74.580  36.790  50.620
   H    73.740  36.210  50.240
   C    75.560  37.230  49.520
   C    76.790  36.250  49.330
   C    74.800  37.260  48.230
   C    75.970  38.620  49.920
   C    78.310  42.210  53.280
   C    77.620  41.990  54.720
   C    78.590  41.280  55.620
   C    77.360  43.350  55.370
   O    77.120  43.430  56.580
   O    77.570  44.380  54.580
   C    77.520  45.720  55.020
   C    78.330  46.680  54.190
   C    78.210  48.160  54.730
   C    79.510  48.780  55.270
   C    77.970  49.050  53.520
   N    77.110  48.390  55.680
   H    77.110  49.320  56.250
   C    75.970  47.530  55.890
   C    75.880  47.150  57.380
   C    74.630  48.240  55.400
   C    76.080  46.260  55.090
   C    76.320  41.150  54.610
   C    74.900  41.420  55.280
   C    73.970  40.300  54.680
   C    74.340  42.680  54.600
   O    75.000  43.330  53.810
   O    72.990  42.830  54.680
   C    72.310  43.850  53.970
   C    71.810  44.860  54.990
   C    70.820  45.890  54.360
   C    71.550  47.110  53.840
   C    69.960  46.460  55.500
   N    69.890  45.320  53.330
   H    68.850  45.650  53.280
   C    70.310  44.230  52.530
   C    71.050  44.870  51.300
   C    69.020  43.620  51.950
   C    71.170  43.220  53.240
   C    74.780  41.270  56.880
   C    73.860  42.000  57.870
   C    74.000  43.580  57.830
   C    72.370  41.530  57.560
   O    72.100  40.310  57.430
   O    71.400  42.500  57.650
   C    69.990  42.120  57.790
   C    69.300  43.310  58.410
   C    67.930  43.030  58.810
   C    67.190  44.450  59.010
   C    67.860  42.260  60.130
   N    67.230  42.280  57.760
   H    66.170  42.080  57.940
   C    67.840  41.730  56.530
   C    67.650  40.240  56.450
   C    67.050  42.510  55.420
   C    69.330  42.020  56.440
   C    74.220  41.700  59.350
   C    74.120  40.330  60.130
   C    74.800  40.710  61.560
   C    72.640  39.980  60.600
   O    71.860  40.910  60.820
   O    72.370  38.630  60.410
   C    70.970  38.180  60.550
   C    70.920  36.880  59.720
   C    69.550  36.270  59.750
   C    68.660  36.990  58.720
   C    69.700  34.800  59.480
   N    68.940  36.460  61.110
   H    67.920  36.100  61.250
   C    69.500  37.270  62.230
   C    69.570  36.490  63.540
   C    68.620  38.560  62.360
   C    70.890  37.740  62.000
   C    74.950  39.190  59.510
   C    75.720  38.070  60.280
   C    74.860  37.170  61.260
   C    77.030  38.650  60.890
   O    77.260  38.440  62.100
   O    77.840  39.260  59.970
   C    79.000  40.000  60.410
   C    80.150  39.610  59.570
   C    81.450  40.340  59.940
   C    82.570  40.030  58.840
   C    82.030  40.010  61.280
   N    81.170  41.820  59.890
   O    82.130  42.540  59.570
   C    79.890  42.360  60.550
   C    79.610  43.760  59.950
   C    80.050  42.480  62.120
   C    78.680  41.510  60.220
   C    76.130  37.060  59.180
   H    80.290  42.240  51.120
   H    79.390  40.990  50.390
   H    78.590  42.530  50.760
   H    81.010  41.940  53.290
   H    81.060  40.330  52.630
   H    80.470  40.500  54.110
   H    77.310  37.740  51.310
   H    76.020  38.200  53.240
   H    74.810  39.200  52.480
   H    76.310  35.740  52.810
   H    74.870  34.950  52.360
   H    74.880  35.960  53.840
   H    72.740  37.980  51.580
   H    73.100  37.890  53.320
   H    72.650  36.490  52.700
   H    76.930  35.780  50.310
   H    76.590  35.530  48.540
   H    77.600  36.890  48.980
   H    74.580  36.230  47.930
   H    75.510  37.680  47.520
   H    73.840  37.780  48.200
   H    75.130  39.320  49.890
   H    76.670  39.030  49.190
   H    79.050  43.000  53.370
   H    77.560  42.680  52.650
   H    78.250  41.030  56.630
   H    79.400  41.970  55.830
   H    78.880  40.330  55.170
   H    77.910  45.710  56.040
   H    79.350  46.290  54.330
   H    78.060  46.640  53.140
   H    79.320  49.780  55.670
   H    79.870  48.250  56.150
   H    80.380  48.810  54.620
   H    77.190  48.650  52.870
   H    78.890  49.200  52.950
   H    77.590  50.000  53.910
   H    75.030  46.500  57.550
   H    76.800  46.620  57.670
   H    75.720  47.980  58.080
   H    73.700  47.710  55.600
   H    74.420  49.090  56.040
   H    74.680  48.530  54.340
   H    75.730  46.480  54.080
   H    75.460  45.440  55.460
   H    76.560  40.150  54.950
   H    76.190  40.960  53.550
   H    72.980  40.270  55.130
   H    73.690  40.440  53.630
   H    74.400  39.300  54.720
   H    73.000  44.390  53.320
   H    72.590  45.300  55.610
   H    71.250  44.260  55.720
   H    72.460  46.860  53.280
   H    71.750  47.840  54.630
   H    70.820  47.570  53.180
   H    69.470  47.400  55.230
   H    69.220  45.740  55.860
   H    70.680  46.630  56.290
   H    71.840  44.220  50.920
   H    71.520  45.800  51.600
   H    70.350  45.100  50.490
   H    68.490  44.440  51.470
   H    69.340  42.910  51.190
   H    68.390  43.110  52.680
   H    71.660  42.610  52.480
   H    70.580  42.580  53.910
   H    75.750  41.500  57.320
   H    74.590  40.210  57.050
   H    73.380  44.160  58.500
   H    73.710  43.980  56.860
   H    75.050  43.840  57.950
   H    69.890  41.170  58.320
   H    69.320  44.170  57.730
   H    69.900  43.730  59.220
   H    67.000  44.910  58.040
   H    67.720  45.150  59.650
   H    66.200  44.370  59.450
   H    66.900  41.800  60.360
   H    68.650  41.510  60.010
   H    68.060  42.970  60.940
   H    67.720  39.860  55.430
   H    68.380  39.800  57.130
   H    66.740  39.820  56.870
   H    67.390  43.450  54.990
   H    67.060  41.880  54.530
   H    65.980  42.560  55.600
   H    69.450  42.920  55.830
   H    69.850  41.290  55.820
   H    75.280  41.960  59.440
   H    73.730  42.400  60.030
   H    74.780  39.890  62.280
   H    74.090  41.370  62.060
   H    75.760  41.200  61.460
   H    70.260  38.900  60.120
   H    71.710  36.180  60.010
   H    71.140  37.070  58.670
   H    68.670  38.080  58.780
   H    67.640  36.670  58.950
   H    68.890  36.620  57.720
   H    70.480  34.280  60.030
   H    70.080  34.700  58.460
   H    68.770  34.220  59.460
   H    69.910  35.470  63.370
   H    68.560  36.310  63.900
   H    70.050  36.930  64.410
   H    68.520  38.930  63.380
   H    67.580  38.410  62.060
   H    68.970  39.400  61.750
   H    71.480  36.870  62.260
   H    71.060  38.570  62.680
   H    74.370  38.610  58.790
   H    75.720  39.610  58.860
   H    74.400  37.700  62.090
   H    74.150  36.510  60.770
   H    75.540  36.510  61.790
   H    79.200  39.780  61.460
   H    79.930  39.710  58.510
   H    80.420  38.590  59.820
   H    83.570  40.360  59.120
   H    82.320  40.470  57.870
   H    82.690  38.960  58.720
   H    82.460  40.880  61.780
   H    81.160  39.740  61.890
   H    82.710  39.170  61.330
   H    78.590  44.070  60.180
   H    80.190  44.610  60.300
   H    79.580  43.770  58.860
   H    79.200  42.920  62.650
   H    80.970  43.020  62.330
   H    80.020  41.500  62.610
   H    78.450  41.630  59.160
   H    77.790  41.900  60.720
   H    76.720  36.300  59.680
   H    75.330  36.650  58.560
   H    76.980  37.430  58.610
  