239
PTMA_CHAIN5_time50
 C    89.090  68.690  70.390
   C    90.420  68.310  69.680
   C    90.550  69.310  68.540
   C    90.420  66.890  69.150
   O    89.610  66.050  69.510
   O    91.290  66.680  68.050
   C    91.840  65.450  67.710
   C    90.930  64.370  67.110
   C    91.580  63.000  66.890
   C    91.570  62.310  68.270
   C    90.780  62.080  66.020
   N    93.020  63.120  66.410
   O    93.760  62.050  66.390
   C    93.560  64.490  65.910
   C    95.040  64.620  66.190
   C    93.430  64.650  64.440
   C    92.850  65.780  66.580
   C    91.770  68.330  70.560
   C    92.340  69.600  71.390
   C    92.480  70.790  70.370
   C    91.300  69.780  72.540
   O    90.960  70.930  72.890
   O    90.760  68.620  72.970
   C    89.740  68.700  73.960
   C    89.210  67.300  74.090
   C    88.160  67.020  75.210
   C    86.770  66.840  74.500
   C    88.500  65.760  75.950
   N    88.100  68.090  76.260
   O    87.070  68.170  76.930
   C    89.200  69.110  76.440
   C    88.490  70.490  76.360
   C    89.910  68.950  77.810
   C    90.310  68.990  75.360
   C    93.830  69.220  71.820
   C    94.560  69.760  73.130
   C    95.990  69.460  72.930
   C    94.190  68.830  74.390
   O    93.430  67.860  74.200
   O    94.790  69.150  75.500
   C    94.730  68.390  76.720
   C    94.730  69.310  77.930
   C    94.590  68.520  79.280
   C    93.080  68.170  79.450
   C    95.080  69.350  80.500
   N    95.250  67.160  79.200
   O    95.080  66.430  80.180
   C    95.800  66.530  77.950
   C    94.870  65.320  77.630
   C    97.190  65.870  78.230
   C    95.980  67.550  76.780
   C    94.350  71.350  73.420
   C    94.520  72.240  74.750
   C    93.350  71.900  75.740
   C    95.840  72.060  75.570
   O    95.990  72.480  76.720
   O    96.830  71.770  74.710
   C    98.280  71.740  74.970
   C    98.870  72.780  75.930
   C    100.400  72.830  76.000
   C    100.880  73.410  77.390
   C    100.990  73.720  74.850
   N    100.990  71.500  75.880
   O    102.160  71.320  76.230
   C    100.240  70.260  75.400
   C    100.630  70.070  73.890
   C    100.710  68.980  76.210
   C    98.740  70.390  75.500
   C    94.200  73.730  74.420
   C    95.310  74.760  73.780
   C    95.920  75.480  75.080
   C    96.470  74.150  72.990
   O    97.680  74.240  73.370
   O    96.150  73.640  71.800
   C    97.250  73.340  70.930
   C    96.630  72.350  69.960
   C    97.640  71.940  68.890
   C    98.250  70.600  69.410
   C    96.950  71.750  67.500
   N    98.830  72.920  68.640
   O    99.670  72.580  67.820
   C    98.990  74.220  69.370
   C    99.220  75.340  68.380
   C    100.290  74.160  70.290
   C    97.830  74.550  70.230
   C    94.870  76.030  72.890
   C    93.420  76.430  72.610
   C    92.810  76.940  73.890
   C    92.620  75.260  71.990
   O    93.210  74.320  71.430
   O    91.300  75.330  72.210
   C    90.310  74.580  71.470
   C    89.160  74.290  72.410
   C    87.920  73.510  71.820
   C    86.850  73.410  72.900
   C    88.360  72.070  71.400
   N    87.480  74.320  70.590
   O    86.280  74.560  70.400
   C    88.510  74.940  69.630
   C    87.790  76.040  68.870
   C    88.930  73.950  68.580
   C    89.580  75.640  70.480
   C    93.390  77.610  71.590
   H    89.080  69.670  70.860
   H    88.350  68.770  69.600
   H    88.770  67.890  71.060
   H    90.170  70.320  68.670
   H    89.860  69.000  67.760
   H    91.570  69.320  68.160
   H    92.450  65.100  68.550
   H    90.150  64.170  67.840
   H    90.470  64.680  66.170
   H    92.090  61.360  68.140
   H    90.570  62.090  68.640
   H    92.230  62.870  68.930
   H    90.610  62.520  65.030
   H    89.760  61.990  66.400
   H    91.290  61.120  65.900
   H    95.580  63.950  65.520
   H    95.480  65.600  66.040
   H    95.270  64.340  67.220
   H    94.060  65.450  64.060
   H    92.380  64.760  64.150
   H    93.740  63.710  63.980
   H    92.310  66.270  65.770
   H    93.600  66.540  66.790
   H    91.820  67.420  71.150
   H    92.570  68.130  69.860
   H    91.490  71.210  70.200
   H    92.850  70.410  69.420
   H    92.970  71.680  70.760
   H    88.950  69.370  73.630
   H    88.840  66.960  73.120
   H    89.980  66.550  74.250
   H    86.750  66.530  73.450
   H    86.070  66.220  75.060
   H    86.360  67.850  74.570
   H    89.480  65.840  76.430
   H    88.540  64.870  75.310
   H    87.820  65.500  76.760
   H    88.050  70.880  77.270
   H    89.090  71.400  76.200
   H    87.670  70.420  75.650
   H    89.170  68.890  78.610
   H    90.450  68.010  77.910
   H    90.540  69.820  78.010
   H    90.920  68.140  75.670
   H    90.960  69.870  75.340
   H    94.570  69.550  71.090
   H    93.930  68.140  71.840
   H    96.490  70.290  72.420
   H    96.560  69.350  73.860
   H    96.170  68.550  72.360
   H    93.900  67.680  76.690
   H    93.940  70.060  77.860
   H    95.620  69.930  77.830
   H    92.710  67.610  78.600
   H    92.480  69.060  79.660
   H    93.000  67.600  80.380
   H    96.160  69.500  80.510
   H    94.660  70.350  80.450
   H    94.850  68.830  81.430
   H    93.810  65.580  77.630
   H    94.960  64.670  78.510
   H    95.030  64.830  76.670
   H    97.070  65.000  78.880
   H    97.690  65.460  77.360
   H    97.780  66.640  78.730
   H    96.210  66.990  75.880
   H    96.840  68.210  76.950
   H    93.300  71.580  73.240
   H    94.860  71.800  72.570
   H    93.350  72.490  76.660
   H    93.300  70.860  76.070
   H    92.410  72.070  75.210
   H    98.770  71.890  74.010
   H    98.500  72.480  76.910
   H    98.430  73.770  75.800
   H    100.350  72.860  78.160
   H    100.520  74.430  77.490
   H    101.950  73.380  77.590
   H    100.270  73.770  74.030
   H    101.240  74.750  75.080
   H    101.870  73.250  74.420
   H    101.710  70.140  73.770
   H    100.300  69.120  73.480
   H    100.360  70.890  73.230
   H    101.800  68.860  76.150
   H    100.470  68.960  77.270
   H    100.380  68.030  75.780
   H    98.320  70.200  76.490
   H    98.350  69.530  74.950
   H    93.400  73.620  73.690
   H    93.780  74.260  75.260
   H    95.210  76.200  75.480
   H    96.720  76.170  74.830
   H    96.210  74.800  75.890
   H    98.110  72.920  71.440
   H    95.750  72.740  69.440
   H    96.230  71.520  70.540
   H    97.440  69.870  69.400
   H    98.750  70.700  70.370
   H    99.090  70.240  68.820
   H    97.630  71.260  66.800
   H    96.450  72.640  67.130
   H    96.090  71.090  67.590
   H    99.410  76.290  68.870
   H    98.400  75.430  67.670
   H    100.140  75.240  67.810
   H    100.330  75.040  70.930
   H    101.150  74.160  69.630
   H    100.340  73.240  70.870
   H    97.060  74.980  69.590
   H    98.050  75.430  70.830
   H    95.390  76.920  73.260
   H    95.350  75.950  71.920
   H    93.400  77.700  74.390
   H    91.840  77.380  73.620
   H    92.500  76.150  74.570
   H    90.630  73.650  71.000
   H    88.830  75.260  72.790
   H    89.580  73.710  73.220
   H    86.470  74.400  73.170
   H    87.200  72.850  73.770
   H    86.010  72.920  72.410
   H    87.690  71.640  70.650
   H    89.350  72.080  70.940
   H    88.370  71.350  72.220
   H    86.970  75.580  68.310
   H    87.290  76.670  69.610
   H    88.470  76.600  68.240
   H    89.610  73.160  68.910
   H    89.520  74.540  67.880
   H    88.040  73.640  68.030
   H    89.040  76.450  70.980
   H    90.380  76.020  69.840
   H    94.030  78.460  71.830
   H    93.700  77.160  70.650
   H    92.370  77.990  71.520
  