239
PTMA_CHAIN4_time18
 C    96.300  91.490  29.950
   C    96.800  90.770  28.650
   C    96.940  91.850  27.550
   C    95.590  89.930  28.280
   O    94.990  89.940  27.210
   O    95.160  89.020  29.250
   C    93.950  88.260  29.070
   C    94.090  86.860  28.540
   C    92.750  86.210  28.310
   C    92.020  86.710  27.110
   C    92.840  84.730  28.180
   N    91.900  86.490  29.500
   H    91.060  85.810  29.570
   C    91.990  87.620  30.420
   C    90.930  88.640  29.940
   C    91.610  87.090  31.820
   C    93.410  88.190  30.440
   C    97.970  89.840  28.970
   C    98.600  88.730  28.010
   C    97.600  87.520  28.020
   C    98.870  89.310  26.580
   O    98.670  88.710  25.540
   O    99.550  90.530  26.620
   C    100.050  91.090  25.360
   C    98.960  91.710  24.500
   C    99.610  92.230  23.160
   C    99.920  91.140  22.110
   C    98.540  93.050  22.430
   N    100.850  93.010  23.370
   O    101.080  93.990  22.620
   C    101.680  92.880  24.610
   C    102.900  92.000  24.070
   C    102.290  94.240  25.090
   C    100.930  92.240  25.800
   C    99.890  88.180  28.690
   C    101.120  87.400  28.020
   C    101.890  86.730  29.120
   C    101.970  88.560  27.380
   O    101.820  88.830  26.210
   O    102.750  89.300  28.230
   C    103.730  90.060  27.600
   C    104.860  89.190  27.070
   C    106.230  89.760  27.140
   C    106.890  89.550  25.750
   C    107.040  89.130  28.240
   N    106.200  91.190  27.350
   H    107.000  91.810  26.940
   C    105.310  91.910  28.260
   C    104.710  93.070  27.490
   C    106.150  92.490  29.360
   C    104.180  90.990  28.740
   C    100.700  86.380  26.910
   C    101.670  85.350  26.270
   C    103.060  85.970  25.980
   C    101.890  84.200  27.230
   O    101.210  84.030  28.230
   O    102.760  83.330  26.840
   C    102.760  82.060  27.420
   C    103.090  81.020  26.260
   C    102.900  79.520  26.700
   C    103.840  78.710  25.740
   C    101.460  79.060  26.490
   N    103.350  79.270  28.160
   O    103.370  78.120  28.580
   C    103.540  80.450  29.160
   C    102.350  80.420  30.150
   C    104.810  80.060  29.880
   C    103.770  81.820  28.550
   C    101.110  84.770  24.910
   C    99.680  84.240  24.740
   C    99.720  83.530  23.360
   C    99.310  83.300  25.840
   O    99.860  82.170  25.920
   O    98.410  83.650  26.660
   C    98.090  82.840  27.830
   C    97.330  83.780  28.630
   C    97.060  83.180  29.930
   C    98.140  83.590  30.960
   C    95.890  83.940  30.520
   N    96.840  81.730  30.010
   H    96.400  81.360  30.930
   C    96.770  80.830  28.830
   C    95.300  80.430  28.730
   C    97.700  79.650  28.910
   C    97.160  81.650  27.610
   C    98.640  85.440  24.620
   C    97.200  85.290  23.980
   C    97.130  85.250  22.450
   C    96.310  86.510  24.530
   O    95.620  86.330  25.510
   O    96.100  87.490  23.620
   C    94.980  88.270  23.620
   C    95.450  89.590  23.000
   C    94.300  90.600  22.850
   C    94.650  91.540  21.670
   C    94.110  91.320  24.160
   N    92.940  90.040  22.500
   O    92.080  90.790  22.050
   C    92.640  88.530  22.580
   C    91.900  88.170  21.310
   C    91.680  88.340  23.810
   C    93.950  87.720  22.670
   C    96.490  83.960  24.450
   H    96.830  92.410  30.220
   H    95.350  91.980  29.760
   H    96.040  90.830  30.770
   H    96.180  92.620  27.700
   H    96.930  91.490  26.530
   H    97.800  92.480  27.810
   H    93.310  88.900  28.460
   H    94.600  86.960  27.580
   H    94.760  86.250  29.150
   H    91.370  87.570  27.270
   H    91.370  85.980  26.640
   H    92.710  87.070  26.340
   H    92.130  84.120  27.620
   H    93.020  84.260  29.140
   H    93.760  84.470  27.650
   H    90.080  88.240  29.380
   H    90.490  89.100  30.820
   H    91.250  89.390  29.210
   H    90.640  86.590  31.830
   H    91.580  87.830  32.610
   H    92.340  86.320  32.070
   H    94.030  87.680  31.180
   H    93.350  89.190  30.870
   H    98.810  90.510  29.150
   H    97.770  89.370  29.940
   H    96.670  87.700  27.490
   H    97.230  87.090  28.950
   H    97.850  86.690  27.350
   H    100.580  90.270  24.880
   H    98.260  90.980  24.090
   H    98.460  92.540  25.000
   H    99.100  90.460  21.860
   H    100.340  91.480  21.160
   H    100.630  90.420  22.500
   H    97.560  92.580  22.480
   H    98.890  93.340  21.430
   H    98.420  94.030  22.900
   H    102.440  91.110  23.650
   H    103.460  92.530  23.300
   H    103.560  91.550  24.810
   H    103.340  94.400  24.840
   H    101.800  95.130  24.680
   H    102.250  94.350  26.170
   H    100.240  93.010  26.170
   H    101.540  91.950  26.660
   H    99.440  87.590  29.490
   H    100.360  88.870  29.380
   H    102.220  87.470  29.850
   H    101.530  85.880  29.690
   H    102.850  86.340  28.780
   H    103.210  90.710  26.900
   H    104.600  88.930  26.040
   H    104.820  88.270  27.660
   H    106.990  88.490  25.500
   H    107.890  89.980  25.670
   H    106.430  89.990  24.870
   H    107.420  88.130  28.030
   H    107.790  89.860  28.560
   H    106.370  89.010  29.090
   H    105.460  93.600  26.890
   H    104.320  93.790  28.200
   H    103.890  92.740  26.850
   H    105.730  93.320  29.920
   H    106.380  91.670  30.040
   H    107.150  92.770  29.040
   H    103.340  91.650  28.970
   H    104.390  90.410  29.640
   H    100.330  86.870  26.000
   H    99.920  85.750  27.320
   H    103.650  86.250  26.850
   H    103.000  86.840  25.320
   H    103.710  85.270  25.460
   H    101.820  81.730  27.850
   H    104.060  81.270  25.830
   H    102.380  81.140  25.440
   H    104.860  79.090  25.710
   H    103.430  78.610  24.740
   H    103.780  77.660  26.040
   H    100.710  79.830  26.660
   H    101.320  78.610  25.510
   H    101.110  78.400  27.280
   H    102.430  81.230  30.870
   H    101.360  80.490  29.700
   H    102.460  79.460  30.650
   H    105.560  79.590  29.240
   H    105.390  80.920  30.240
   H    104.460  79.400  30.670
   H    104.750  81.820  28.080
   H    103.730  82.590  29.320
   H    101.300  85.550  24.170
   H    101.800  83.990  24.600
   H    99.960  84.210  22.540
   H    98.810  82.970  23.130
   H    100.470  82.750  23.320
   H    99.030  82.670  28.360
   H    96.420  84.080  28.110
   H    97.860  84.730  28.760
   H    97.940  83.360  32.010
   H    98.200  84.680  30.950
   H    99.130  83.160  30.790
   H    95.660  83.840  31.580
   H    94.930  83.650  30.110
   H    96.090  85.000  30.380
   H    94.930  79.740  27.970
   H    94.630  81.280  28.600
   H    95.040  79.920  29.660
   H    97.640  79.070  27.990
   H    97.390  78.940  29.680
   H    98.770  79.890  28.940
   H    96.260  81.860  27.040
   H    97.710  80.970  26.960
   H    98.540  85.920  25.600
   H    99.200  86.110  23.960
   H    96.190  85.620  22.030
   H    97.890  85.910  22.020
   H    97.180  84.270  21.970
   H    94.740  88.620  24.630
   H    95.980  89.400  22.070
   H    96.290  89.880  23.630
   H    95.050  90.920  20.860
   H    95.440  92.220  21.990
   H    93.810  92.150  21.330
   H    93.400  92.140  24.080
   H    93.590  90.700  24.890
   H    95.080  91.650  24.520
   H    91.980  88.960  20.560
   H    92.280  87.300  20.770
   H    90.840  88.020  21.510
   H    92.180  88.460  24.770
   H    91.330  87.310  23.790
   H    90.850  89.050  23.900
   H    94.500  87.650  21.730
   H    93.770  86.690  22.990
   H    95.550  83.980  23.920
   H    97.030  83.030  24.270
   H    96.220  84.090  25.500
  