239
PTMA_CHAIN1_time0point005
 C    92.420  25.390  76.820
   C    92.530  26.670  76.000
   C    91.050  27.280  76.010
   C    92.830  26.220  74.560
   O    91.970  26.300  73.630
   O    94.000  25.640  74.460
   C    94.280  24.820  73.360
   C    94.720  25.590  72.110
   C    94.890  24.630  70.930
   C    93.570  24.510  70.190
   C    95.850  25.340  69.880
   N    95.420  23.270  71.360
   H    95.830  22.650  70.560
   C    96.210  23.210  72.620
   C    96.400  21.760  73.010
   C    97.600  23.880  72.470
   C    95.460  23.910  73.740
   C    93.600  27.570  76.690
   C    93.630  29.150  76.460
   C    93.580  29.440  74.890
   C    92.380  29.800  77.160
   O    91.650  30.620  76.640
   O    92.320  29.450  78.440
   C    91.420  30.060  79.380
   C    90.200  29.170  79.680
   C    90.250  28.390  80.930
   C    88.870  27.690  81.120
   C    91.290  27.330  80.910
   N    90.590  29.260  82.200
   O    89.730  29.380  83.080
   C    91.390  30.560  81.870
   C    90.410  31.760  81.710
   C    92.290  30.790  83.010
   C    92.280  30.360  80.640
   C    94.950  29.690  77.120
   C    95.650  31.060  76.850
   C    96.590  30.900  75.610
   C    96.440  31.250  78.140
   O    95.860  31.480  79.260
   O    97.730  31.010  78.050
   C    98.420  30.880  79.380
   C    98.830  32.190  79.970
   C    99.560  32.110  81.330
   C    98.550  31.640  82.420
   C    99.960  33.560  81.620
   N    100.710  31.180  81.130
   H    101.380  31.180  81.990
   C    100.600  29.930  80.410
   C    99.990  28.780  81.180
   C    102.060  29.460  79.930
   C    99.710  30.120  79.140
   C    94.660  32.320  76.530
   C    94.910  33.840  76.800
   C    95.300  34.150  78.330
   C    96.020  34.570  76.160
   O    96.000  35.770  75.930
   O    97.110  33.820  75.850
   C    98.330  34.520  75.480
   C    99.550  33.760  75.910
   C    100.540  33.300  74.880
   C    100.010  31.990  74.200
   C    101.840  32.810  75.600
   N    100.920  34.350  73.790
   O    102.070  34.840  73.810
   C    99.780  35.320  73.490
   C    100.100  36.710  74.170
   C    99.680  35.510  71.930
   C    98.380  34.860  73.940
   C    93.570  34.650  76.600
   C    92.770  34.800  75.300
   C    92.100  36.120  75.390
   C    93.670  34.900  74.040
   O    94.190  36.010  73.700
   O    93.690  33.740  73.330
   C    93.790  33.960  71.890
   C    95.300  33.960  71.420
   C    95.350  34.370  69.920
   C    95.510  35.890  69.840
   C    96.720  33.740  69.380
   N    94.110  33.930  69.180
   H    94.150  34.120  68.110
   C    93.450  32.740  69.650
   C    94.200  31.430  69.410
   C    92.040  32.600  68.910
   C    93.060  32.890  71.170
   C    91.650  33.680  75.100
   C    90.260  33.730  75.790
   C    90.370  33.730  77.300
   C    89.390  32.410  75.330
   O    89.470  32.000  74.180
   O    88.510  32.040  76.260
   C    87.520  31.140  75.870
   C    87.240  30.160  76.970
   C    85.970  29.260  76.760
   C    85.590  28.710  78.200
   C    86.350  28.120  75.850
   N    84.770  29.960  76.090
   O    83.620  29.520  76.380
   C    84.950  31.550  76.120
   C    84.730  32.130  77.560
   C    83.840  32.100  75.220
   C    86.290  31.980  75.550
   C    89.330  34.800  75.310
   H    92.250  25.440  77.900
   H    91.820  24.570  76.420
   H    93.370  24.870  76.740
   H    90.700  27.490  77.030
   H    90.370  26.530  75.620
   H    90.900  28.210  75.460
   H    93.380  24.230  73.160
   H    93.990  26.350  71.850
   H    95.690  26.070  72.220
   H    92.890  24.040  70.900
   H    93.620  23.850  69.320
   H    93.110  25.460  69.940
   H    95.380  26.310  69.750
   H    95.860  24.730  68.980
   H    96.780  25.650  70.370
   H    96.750  21.070  72.250
   H    96.930  21.720  73.960
   H    95.520  21.130  73.090
   H    97.610  24.970  72.390
   H    98.200  23.480  71.650
   H    98.170  23.690  73.380
   H    96.150  24.470  74.370
   H    95.000  23.170  74.390
   H    93.510  27.500  77.770
   H    94.540  27.190  76.300
   H    93.650  30.500  74.670
   H    92.700  29.140  74.320
   H    94.450  28.920  74.480
   H    91.060  30.990  78.940
   H    89.300  29.790  79.660
   H    90.020  28.540  78.800
   H    88.070  28.420  81.030
   H    88.720  27.070  80.230
   H    88.760  27.080  82.020
   H    91.170  26.710  81.810
   H    92.320  27.620  80.720
   H    91.110  26.630  80.100
   H    91.070  32.590  81.440
   H    89.690  31.640  80.900
   H    89.940  31.990  82.670
   H    91.850  30.920  84.000
   H    93.020  30.010  83.210
   H    92.910  31.680  82.890
   H    93.080  29.630  80.660
   H    92.830  31.290  80.480
   H    95.650  28.870  77.010
   H    94.690  29.700  78.180
   H    96.150  30.750  74.620
   H    97.440  31.580  75.540
   H    97.100  29.950  75.710
   H    97.910  30.210  80.060
   H    97.920  32.790  80.020
   H    99.500  32.790  79.350
   H    99.000  31.710  83.410
   H    98.170  30.660  82.150
   H    97.730  32.340  82.550
   H    100.740  33.910  80.950
   H    99.120  34.250  81.700
   H    100.490  33.410  82.550
   H    99.970  27.890  80.540
   H    98.950  28.960  81.450
   H    100.620  28.510  82.020
   H    102.440  30.270  79.310
   H    102.760  29.250  80.740
   H    102.070  28.580  79.280
   H    99.450  29.220  78.590
   H    100.370  30.660  78.460
   H    93.780  32.200  77.160
   H    94.300  32.310  75.500
   H    94.530  33.750  78.990
   H    95.410  35.210  78.550
   H    96.270  33.710  78.560
   H    98.320  35.500  75.960
   H    99.250  32.880  76.470
   H    100.010  34.440  76.620
   H    99.750  31.180  74.890
   H    100.690  31.570  73.470
   H    99.140  32.290  73.620
   H    102.510  32.290  74.920
   H    102.420  33.630  76.020
   H    101.560  31.950  76.200
   H    99.350  37.490  74.050
   H    100.140  36.470  75.230
   H    101.040  37.200  73.940
   H    99.540  34.600  71.360
   H    98.820  36.150  71.730
   H    100.650  35.920  71.630
   H    97.940  34.020  73.400
   H    97.550  35.530  73.730
   H    92.810  34.280  77.300
   H    93.700  35.670  76.950
   H    91.410  36.240  76.220
   H    91.440  36.410  74.580
   H    92.850  36.900  75.580
   H    93.380  34.870  71.460
   H    95.730  32.970  71.560
   H    95.830  34.500  72.200
   H    96.350  36.230  70.450
   H    94.610  36.440  70.090
   H    95.610  36.140  68.790
   H    97.580  33.960  70.020
   H    96.990  34.100  68.390
   H    96.730  32.650  69.330
   H    94.490  31.340  68.370
   H    93.560  30.560  69.590
   H    95.060  31.400  70.080
   H    91.500  33.530  69.040
   H    91.480  31.780  69.370
   H    92.160  32.430  67.840
   H    93.300  31.910  71.590
   H    92.010  33.120  71.360
   H    91.410  33.790  74.040
   H    92.130  32.710  75.210
   H    90.750  34.720  77.550
   H    89.430  33.560  77.830
   H    90.990  32.910  77.670
   H    87.800  30.610  74.970
   H    87.250  30.680  77.930
   H    88.090  29.500  77.150
   H    85.270  29.470  78.910
   H    86.410  28.200  78.710
   H    84.820  27.930  78.230
   H    85.530  27.400  75.770
   H    86.570  28.580  74.890
   H    87.170  27.490  76.180
   H    84.680  33.220  77.620
   H    83.810  31.880  78.090
   H    85.590  31.950  78.200
   H    83.990  33.180  75.100
   H    82.890  31.850  75.680
   H    83.900  31.740  74.190
   H    86.470  33.010  75.850
   H    86.200  31.970  74.470
   H    89.590  35.090  74.290
   H    88.290  34.690  75.620
   H    89.560  35.750  75.800
  