239
PTMA_CHAIN2_time5
 C    93.910  17.300  93.570
   C    93.080  18.600  93.220
   C    94.080  19.840  93.420
   C    91.940  18.800  94.260
   O    91.780  19.900  94.800
   O    91.220  17.660  94.410
   C    90.340  17.550  95.500
   C    89.220  16.560  95.130
   C    88.260  16.320  96.310
   C    87.320  17.470  96.570
   C    87.370  15.130  95.950
   N    89.060  16.100  97.620
   O    88.390  15.720  98.590
   C    90.480  16.580  97.880
   C    90.370  17.840  98.730
   C    91.280  15.520  98.710
   C    91.200  16.860  96.580
   C    92.430  18.330  91.860
   C    91.920  19.410  90.910
   C    90.940  20.430  91.700
   C    93.100  20.230  90.350
   O    92.920  21.380  89.890
   O    94.210  19.550  90.250
   C    95.320  19.970  89.430
   C    96.110  21.110  89.950
   C    97.220  21.480  88.980
   C    96.800  22.330  87.730
   C    98.110  22.370  89.840
   N    98.080  20.260  88.600
   O    99.220  20.540  88.200
   C    97.510  18.900  88.620
   C    96.950  18.650  87.230
   C    98.590  17.850  88.950
   C    96.270  18.760  89.530
   C    91.170  18.710  89.720
   C    90.800  19.220  88.240
   C    89.460  18.380  87.870
   C    91.910  18.700  87.180
   O    93.110  18.710  87.440
   O    91.430  17.990  86.260
   C    92.220  17.190  85.360
   C    92.490  18.010  84.090
   C    92.940  17.200  82.860
   C    94.420  17.000  82.970
   C    92.690  18.060  81.550
   N    92.100  15.920  82.800
   O    91.260  15.750  81.920
   C    91.890  15.040  84.010
   C    93.090  14.210  84.520
   C    90.680  14.040  83.910
   C    91.340  16.050  85.070
   C    90.430  20.770  88.120
   C    90.860  21.780  86.920
   C    92.260  21.550  86.260
   C    89.800  21.720  85.790
   O    89.170  22.770  85.590
   O    89.860  20.650  84.880
   C    88.870  20.450  83.930
   C    89.450  20.490  82.520
   C    88.370  19.920  81.410
   C    89.080  19.900  80.050
   C    87.060  20.820  81.300
   N    88.190  18.470  81.800
   O    88.520  17.530  81.070
   C    87.550  18.290  83.150
   C    86.080  18.630  83.250
   C    87.670  16.780  83.470
   C    88.410  19.020  84.190
   C    91.010  23.250  87.430
   C    89.880  24.170  88.010
   C    89.420  25.270  87.060
   C    88.620  23.470  88.540
   O    87.500  23.500  88.010
   O    88.770  22.920  89.790
   C    87.690  22.790  90.660
   C    87.070  21.410  90.570
   C    85.800  21.360  91.370
   C    84.640  22.130  90.720
   C    85.340  19.860  91.480
   N    86.040  21.840  92.790
   O    85.260  21.490  93.660
   C    87.230  22.770  93.190
   C    88.040  22.120  94.310
   C    86.670  24.150  93.500
   C    88.250  22.960  92.020
   C    90.490  24.820  89.300
   C    91.630  25.930  89.380
   C    92.860  25.680  88.430
   C    92.000  26.150  90.840
   O    91.210  25.970  91.780
   O    93.120  26.770  90.940
   C    93.610  27.010  92.220
   C    94.360  25.820  92.800
   C    94.990  26.120  94.140
   C    95.790  24.830  94.460
   C    93.920  26.280  95.160
   N    95.880  27.370  94.070
   O    96.960  27.400  94.660
   C    95.470  28.550  93.170
   C    96.700  29.220  92.590
   C    94.630  29.560  93.910
   C    94.740  27.980  91.890
   C    91.020  27.310  89.100
   H    94.820  17.070  93.030
   H    94.230  17.190  94.610
   H    93.250  16.430  93.520
   H    95.010  19.860  92.860
   H    94.320  19.820  94.490
   H    93.600  20.810  93.280
   H    89.970  18.520  95.830
   H    88.660  16.870  94.250
   H    89.730  15.640  94.870
   H    87.850  18.300  97.040
   H    86.610  17.100  97.310
   H    86.810  17.810  95.670
   H    86.820  14.750  96.820
   H    87.970  14.340  95.510
   H    86.600  15.440  95.250
   H    91.250  18.020  99.350
   H    90.350  18.730  98.110
   H    89.470  17.750  99.340
   H    91.400  14.550  98.210
   H    90.830  15.310  99.680
   H    92.310  15.840  98.790
   H    91.630  15.970  96.120
   H    92.040  17.510  96.840
   H    93.100  17.590  91.420
   H    91.570  17.670  91.970
   H    90.350  21.080  91.040
   H    91.500  21.100  92.360
   H    90.330  19.920  92.430
   H    94.920  20.160  88.430
   H    95.460  21.960  90.110
   H    96.510  20.780  90.910
   H    97.660  22.780  87.230
   H    96.220  21.800  86.970
   H    96.260  23.200  88.090
   H    98.980  22.720  89.290
   H    98.410  21.820  90.740
   H    97.620  23.220  90.320
   H    96.280  17.790  87.150
   H    96.330  19.480  86.900
   H    97.760  18.570  86.510
   H    98.420  16.920  88.410
   H    99.550  18.140  88.510
   H    98.610  17.740  90.030
   H    96.470  18.560  90.580
   H    95.700  17.920  89.140
   H    90.240  18.340  90.160
   H    91.690  17.760  89.550
   H    89.140  18.610  86.850
   H    89.750  17.330  87.840
   H    88.640  18.430  88.590
   H    93.190  16.910  85.750
   H    93.340  18.650  84.320
   H    91.590  18.530  83.790
   H    94.600  16.420  83.870
   H    95.040  17.900  82.910
   H    94.730  16.390  82.120
   H    91.630  18.310  81.450
   H    93.230  19.000  81.520
   H    92.960  17.600  80.600
   H    92.810  13.380  85.160
   H    93.760  14.790  85.150
   H    93.770  13.940  83.710
   H    89.830  14.540  83.450
   H    90.960  13.250  83.200
   H    90.400  13.560  84.850
   H    90.870  15.560  85.920
   H    90.470  16.500  84.590
   H    90.660  21.220  89.090
   H    89.350  20.820  88.090
   H    92.940  21.380  87.100
   H    92.720  22.370  85.700
   H    92.320  20.700  85.590
   H    88.020  21.130  84.020
   H    90.390  19.940  82.430
   H    89.770  21.470  82.150
   H    88.500  19.370  79.290
   H    90.040  19.390  80.100
   H    89.270  20.870  79.600
   H    86.120  20.310  81.090
   H    86.950  21.530  82.120
   H    87.230  21.440  80.430
   H    85.810  19.660  83.460
   H    85.560  18.340  82.340
   H    85.720  18.030  84.080
   H    88.700  16.410  83.400
   H    87.200  16.570  84.420
   H    87.140  16.210  82.700
   H    89.320  18.470  84.390
   H    87.840  18.910  85.110
   H    91.860  23.140  88.110
   H    91.460  23.810  86.610
   H    90.230  25.740  86.490
   H    88.930  26.070  87.620
   H    88.680  25.050  86.300
   H    86.940  23.560  90.460
   H    87.720  20.620  90.930
   H    86.810  21.210  89.530
   H    84.460  23.090  91.200
   H    83.700  21.580  90.730
   H    84.820  22.380  89.670
   H    85.310  19.220  90.600
   H    84.330  19.870  91.890
   H    85.910  19.340  92.250
   H    87.470  22.110  95.240
   H    88.990  22.610  94.500
   H    88.280  21.090  94.070
   H    86.190  24.110  94.480
   H    85.930  24.380  92.720
   H    87.400  24.950  93.530
   H    89.010  22.190  92.100
   H    88.770  23.920  92.030
   H    89.690  25.220  89.920
   H    90.920  24.090  89.980
   H    92.490  25.570  87.410
   H    93.590  26.490  88.420
   H    93.490  24.810  88.630
   H    92.850  27.460  92.870
   H    95.150  25.460  92.130
   H    93.710  24.940  92.810
   H    96.530  24.850  95.260
   H    96.270  24.510  93.530
   H    95.130  23.990  94.660
   H    93.060  25.630  95.030
   H    94.280  26.050  96.160
   H    93.490  27.290  95.210
   H    96.540  29.780  91.670
   H    96.910  29.950  93.370
   H    97.510  28.490  92.550
   H    93.620  29.250  94.170
   H    94.480  30.520  93.420
   H    95.000  29.710  94.930
   H    95.490  27.620  91.190
   H    94.330  28.800  91.310
   H    90.890  27.410  88.020
   H    90.050  27.330  89.600
   H    91.690  28.150  89.280
  