239
PTMA_CHAIN6_time20
 C    74.290  32.450  36.710
   C    75.170  31.340  36.060
   C    74.260  30.800  34.880
   C    75.160  30.240  37.190
   O    74.290  29.350  37.300
   O    76.130  30.530  38.100
   C    76.110  29.840  39.310
   C    77.550  29.760  39.770
   C    77.600  28.880  41.080
   C    77.910  27.430  40.630
   C    78.590  29.390  42.110
   N    76.280  28.770  41.790
   H    76.250  28.060  42.620
   C    75.170  29.740  41.560
   C    73.910  28.900  41.530
   C    75.090  30.640  42.800
   C    75.320  30.630  40.370
   C    76.510  31.970  35.670
   C    77.570  31.080  34.840
   C    77.790  29.810  35.620
   C    77.010  30.750  33.420
   O    77.040  29.620  32.970
   O    76.550  31.880  32.810
   C    76.120  31.710  31.480
   C    74.760  31.050  31.440
   C    74.530  30.730  29.960
   C    75.190  29.420  29.510
   C    73.000  30.460  29.760
   N    74.930  31.780  29.000
   H    74.580  31.690  27.980
   C    75.920  32.870  29.270
   C    77.310  32.570  28.710
   C    75.400  34.200  28.780
   C    76.090  33.000  30.780
   C    78.930  31.930  34.880
   C    80.310  31.660  33.990
   C    81.410  32.540  34.710
   C    80.020  32.320  32.570
   O    79.540  31.610  31.740
   O    80.420  33.590  32.510
   C    80.500  34.120  31.200
   C    82.000  33.940  30.860
   C    82.470  34.860  29.700
   C    82.930  34.090  28.490
   C    83.580  35.840  30.200
   N    81.310  35.660  29.150
   H    81.260  35.820  28.080
   C    80.430  36.320  30.080
   C    79.090  36.320  29.370
   C    80.950  37.780  30.170
   C    80.210  35.580  31.420
   C    80.610  30.040  33.920
   C    82.030  29.610  33.480
   C    82.510  30.310  32.210
   C    83.110  29.840  34.540
   O    84.330  29.810  34.280
   O    82.640  30.080  35.860
   C    83.470  29.890  36.980
   C    84.150  31.210  37.240
   C    85.020  31.290  38.550
   C    85.060  32.750  39.190
   C    86.440  30.930  38.110
   N    84.490  30.380  39.560
   H    84.850  30.510  40.580
   C    83.490  29.310  39.330
   C    84.400  28.040  39.160
   C    82.800  29.090  40.660
   C    82.540  29.530  38.190
   C    81.950  28.050  33.180
   C    81.960  26.910  34.240
   C    81.750  25.600  33.360
   C    83.340  26.750  34.860
   O    83.560  27.000  36.000
   O    84.290  26.600  33.920
   C    85.670  26.940  34.210
   C    86.400  25.720  34.740
   C    87.910  26.010  35.000
   C    88.230  26.610  36.400
   C    88.720  24.710  34.950
   N    88.480  26.810  33.900
   H    89.550  26.700  33.710
   C    87.710  27.880  33.210
   C    88.440  28.250  31.950
   C    87.710  29.190  34.040
   C    86.390  27.290  32.950
   C    80.740  27.140  35.230
   C    80.190  25.950  36.060
   C    81.250  25.090  36.750
   C    79.270  25.010  35.270
   O    79.130  23.820  35.450
   O    78.650  25.770  34.290
   C    77.560  25.150  33.590
   C    76.380  25.650  34.330
   C    74.970  25.470  33.690
   C    74.180  26.740  33.890
   C    74.270  24.210  34.260
   N    75.050  25.250  32.180
   O    74.010  25.120  31.520
   C    76.270  24.900  31.460
   C    76.110  25.380  29.980
   C    76.620  23.400  31.320
   C    77.470  25.660  32.120
   C    79.310  26.490  37.210
   H    73.580  31.990  37.400
   H    74.990  33.060  37.280
   H    73.880  33.090  35.940
   H    74.250  31.560  34.100
   H    73.220  30.650  35.160
   H    74.590  29.870  34.420
   H    75.670  28.840  39.210
   H    78.270  29.380  39.050
   H    77.820  30.810  39.920
   H    78.870  27.400  40.110
   H    77.090  27.060  40.010
   H    78.030  26.810  41.520
   H    78.550  28.720  42.970
   H    78.380  30.430  42.370
   H    79.560  29.330  41.630
   H    73.830  28.190  42.360
   H    73.030  29.550  41.630
   H    73.740  28.300  40.640
   H    75.100  30.110  43.750
   H    74.160  31.220  42.800
   H    75.950  31.300  42.670
   H    75.860  31.530  40.660
   H    74.330  30.920  40.030
   H    76.350  32.980  35.280
   H    77.080  32.190  36.560
   H    76.870  29.240  35.690
   H    78.130  30.010  36.640
   H    78.440  29.060  35.170
   H    76.810  31.010  31.020
   H    74.790  30.180  32.100
   H    73.970  31.700  31.800
   H    74.910  28.570  30.130
   H    74.850  29.270  28.480
   H    76.260  29.590  29.370
   H    72.430  31.370  29.910
   H    72.610  29.860  30.590
   H    72.710  29.920  28.860
   H    77.700  31.610  29.040
   H    77.420  32.780  27.640
   H    78.030  33.320  29.040
   H    75.670  35.060  29.400
   H    75.810  34.340  27.780
   H    74.320  34.190  28.700
   H    75.310  33.600  31.240
   H    76.950  33.650  30.970
   H    79.200  32.230  35.890
   H    78.510  32.860  34.500
   H    81.540  32.240  35.750
   H    82.370  32.610  34.200
   H    81.070  33.570  34.750
   H    79.730  33.640  30.600
   H    82.040  32.890  30.570
   H    82.490  34.100  31.820
   H    83.790  33.520  28.840
   H    83.320  34.760  27.720
   H    82.290  33.350  27.990
   H    83.240  36.390  31.090
   H    84.370  35.280  30.690
   H    83.940  36.630  29.540
   H    78.400  36.860  30.030
   H    78.750  35.280  29.350
   H    79.150  36.880  28.440
   H    81.710  37.880  30.940
   H    81.150  38.180  29.170
   H    80.160  38.460  30.480
   H    79.290  35.850  31.930
   H    80.860  35.970  32.210
   H    79.870  29.550  33.290
   H    80.510  29.710  34.950
   H    83.520  30.010  31.950
   H    82.560  31.400  32.330
   H    81.890  30.120  31.330
   H    84.200  29.100  36.790
   H    83.350  31.910  37.450
   H    84.750  31.560  36.400
   H    85.810  32.780  39.980
   H    84.080  33.100  39.490
   H    85.420  33.400  38.390
   H    87.200  31.220  38.840
   H    86.590  29.850  38.090
   H    86.780  31.220  37.120
   H    84.880  27.810  40.110
   H    83.990  27.130  38.730
   H    85.250  28.330  38.550
   H    82.330  28.110  40.700
   H    83.410  29.240  41.550
   H    81.850  29.630  40.760
   H    81.830  30.320  38.380
   H    81.950  28.650  37.920
   H    81.130  27.810  32.500
   H    82.840  27.900  32.570
   H    81.920  24.710  33.980
   H    82.490  25.580  32.560
   H    80.790  25.540  32.840
   H    85.600  27.760  34.920
   H    86.250  24.850  34.100
   H    85.940  25.350  35.660
   H    87.770  26.190  37.290
   H    87.910  27.660  36.410
   H    89.310  26.620  36.600
   H    88.570  24.200  33.990
   H    88.340  24.070  35.750
   H    89.790  24.650  35.140
   H    87.760  28.520  31.140
   H    88.870  27.360  31.480
   H    89.080  29.110  32.130
   H    87.180  29.190  35.000
   H    87.150  29.930  33.460
   H    88.730  29.520  34.200
   H    86.590  26.420  32.320
   H    85.850  28.050  32.380
   H    81.170  27.870  35.920
   H    79.910  27.610  34.720
   H    81.890  24.490  36.110
   H    81.890  25.740  37.350
   H    80.800  24.340  37.400
   H    77.730  24.070  33.590
   H    76.550  26.730  34.420
   H    76.350  25.180  35.310
   H    73.250  26.670  33.330
   H    74.630  27.610  33.420
   H    74.060  26.850  34.970
   H    73.470  23.930  33.570
   H    74.920  23.340  34.200
   H    73.830  24.370  35.240
   H    77.080  25.570  29.510
   H    75.560  24.640  29.400
   H    75.630  26.360  29.970
   H    76.560  22.810  32.240
   H    77.630  23.310  30.930
   H    76.030  22.840  30.590
   H    77.410  26.750  32.160
   H    78.430  25.460  31.660
   H    79.870  27.330  37.610
   H    78.350  26.910  36.920
   H    79.170  25.750  38.010
  