239
PTMA_CHAIN9_time4
  C     73.480000   35.990000   50.110000
  C     74.450000   36.620000   51.160000
  C     75.910000   36.320000   50.550000
  C     74.230000   35.990000   52.570000
  O     75.080000   35.370000   53.200000
  O     72.990000   36.100000   53.010000
  C     72.530000   35.390000   54.110000
  C     71.390000   36.110000   54.760000
  C     70.780000   35.370000   55.920000
  C     71.670000   35.410000   57.200000
  C     69.480000   35.980000   56.320000
  N     70.530000   33.940000   55.590000
  H     69.710000   33.340000   55.990000
  C     71.540000   33.220000   54.700000
  C     72.740000   32.660000   55.470000
  C     70.770000   32.030000   54.050000
  C     71.970000   34.130000   53.580000
  C     74.090000   38.100000   51.230000
  C     74.690000   39.030000   52.350000
  C     74.190000   38.770000   53.780000
  C     76.220000   38.840000   52.270000
  O     76.810000   38.300000   53.200000
  O     76.870000   39.570000   51.340000
  C     78.310000   39.400000   51.290000
  C     78.700000   39.800000   49.920000
  C     80.180000   39.570000   49.760000
  C     80.480000   38.100000   49.470000
  C     80.670000   40.410000   48.580000
  N     81.020000   39.990000   50.920000
  O     82.200000   39.910000   50.760000
  C     80.500000   40.410000   52.260000
  C     81.140000   39.560000   53.360000
  C     80.940000   41.870000   52.570000
  C     78.940000   40.480000   52.210000
  C     74.350000   40.460000   51.900000
  C     74.450000   41.740000   52.830000
  C     73.180000   41.820000   53.820000
  C     74.340000   42.890000   51.740000
  O     75.250000   43.550000   51.380000
  O     73.190000   42.840000   51.120000
  C     72.880000   43.730000   50.030000
  C     72.140000   44.930000   50.580000
  C     71.870000   45.860000   49.420000
  C     73.050000   46.860000   49.190000
  C     70.640000   46.750000   49.670000
  N     71.510000   45.240000   48.150000
  H     71.200000   45.880000   47.320000
  C     71.790000   43.830000   47.860000
  C     72.930000   43.870000   46.830000
  C     70.580000   43.380000   47.060000
  C     71.970000   42.960000   49.040000
  C     75.810000   41.830000   53.650000
  C     76.340000   42.750000   54.900000
  C     76.230000   44.240000   54.320000
  C     75.290000   42.630000   56.040000
  O     74.610000   43.580000   56.460000
  O     75.090000   41.350000   56.430000
  C     74.320000   41.200000   57.640000
  C     72.800000   41.220000   57.370000
  C     71.820000   40.900000   58.620000
  C     70.350000   40.520000   58.140000
  C     71.750000   42.170000   59.490000
  N     72.380000   39.930000   59.640000
  O     71.620000   39.580000   60.590000
  C     73.830000   39.440000   59.570000
  C     74.740000   40.100000   60.640000
  C     73.730000   37.890000   59.800000
  C     74.560000   39.710000   58.160000
  C     77.830000   42.470000   55.220000
  C     78.510000   42.630000   56.670000
  C     77.990000   43.900000   57.250000
  C     78.170000   41.410000   57.570000
  O     77.310000   41.390000   58.460000
  O     78.760000   40.350000   57.030000
  C     78.480000   38.940000   57.400000
  C     78.310000   38.170000   56.140000
  C     77.960000   36.710000   56.360000
  C     76.510000   36.490000   56.650000
  C     78.450000   35.870000   55.160000
  N     78.740000   36.160000   57.450000
  H     78.940000   35.090000   57.440000
  C     79.270000   36.940000   58.590000
  C     80.660000   36.320000   59.000000
  C     78.340000   36.840000   59.820000
  C     79.610000   38.380000   58.230000
  C     80.090000   42.800000   56.360000
  C     81.170000   42.940000   57.530000
  C     80.900000   44.080000   58.510000
  C     82.570000   43.230000   56.820000
  O     82.630000   44.240000   56.060000
  O     83.540000   42.270000   56.980000
  C     84.720000   42.170000   56.100000
  C     85.860000   41.720000   57.000000
  C     87.150000   41.440000   56.220000
  C     88.080000   40.640000   57.150000
  C     87.920000   42.770000   55.770000
  N     86.900000   40.650000   54.910000
  O     87.770000   39.870000   54.500000
  C     85.580000   40.740000   54.170000
  C     85.370000   39.460000   53.270000
  C     85.710000   41.920000   53.220000
  C     84.390000   41.040000   55.080000
  C     81.320000   41.570000   58.230000
  H     73.460000   34.910000   50.100000
  H     72.440000   36.310000   50.170000
  H     73.730000   36.290000   49.090000
  H     76.230000   37.060000   49.810000
  H     75.910000   35.360000   50.040000
  H     76.690000   36.270000   51.320000
  H     73.350000   35.220000   54.810000
  H     71.790000   37.010000   55.230000
  H     70.590000   36.440000   54.100000
  H     71.390000   34.660000   57.930000
  H     71.580000   36.390000   57.680000
  H     72.740000   35.370000   56.970000
  H     68.950000   35.390000   57.060000
  H     68.760000   36.150000   55.510000
  H     69.570000   36.890000   56.910000
  H     73.450000   33.410000   55.810000
  H     72.430000   32.120000   56.370000
  H     73.330000   31.900000   54.970000
  H     70.290000   31.370000   54.770000
  H     71.430000   31.470000   53.390000
  H     69.930000   32.470000   53.510000
  H     71.140000   34.350000   52.900000
  H     72.700000   33.540000   53.030000
  H     74.270000   38.630000   50.290000
  H     73.030000   38.160000   51.450000
  H     74.550000   39.510000   54.500000
  H     74.580000   37.860000   54.230000
  H     73.110000   38.870000   53.910000
  H     78.620000   38.380000   51.480000
  H     78.290000   39.200000   49.110000
  H     78.520000   40.870000   49.810000
  H     81.510000   38.000000   49.140000
  H     80.330000   37.410000   50.300000
  H     79.890000   37.720000   48.630000
  H     79.840000   40.450000   47.880000
  H     81.480000   39.970000   48.010000
  H     80.810000   41.450000   48.880000
  H     80.820000   39.810000   54.370000
  H     80.910000   38.500000   53.250000
  H     82.230000   39.540000   53.280000
  H     82.020000   41.840000   52.710000
  H     80.730000   42.620000   51.800000
  H     80.450000   42.280000   53.450000
  H     78.660000   41.510000   51.950000
  H     78.490000   40.380000   53.200000
  H     73.340000   40.570000   51.500000
  H     74.870000   40.600000   50.950000
  H     72.890000   40.860000   54.260000
  H     73.130000   42.620000   54.560000
  H     72.250000   42.020000   53.280000
  H     73.840000   43.930000   49.550000
  H     72.850000   45.410000   51.250000
  H     71.220000   44.610000   51.070000
  H     72.650000   47.770000   48.760000
  H     73.850000   46.460000   48.560000
  H     73.550000   47.060000   50.140000
  H     69.860000   46.000000   49.830000
  H     70.690000   47.330000   50.590000
  H     70.450000   47.500000   48.910000
  H     72.850000   44.650000   46.080000
  H     72.970000   42.910000   46.310000
  H     73.910000   44.090000   47.260000
  H     70.690000   42.310000   46.880000
  H     69.610000   43.550000   47.520000
  H     70.430000   43.830000   46.090000
  H     72.500000   42.040000   48.760000
  H     70.980000   42.780000   49.460000
  H     76.520000   41.930000   52.830000
  H     75.930000   40.810000   54.020000
  H     75.210000   44.600000   54.140000
  H     76.670000   44.310000   53.330000
  H     76.860000   44.960000   54.830000
  H     74.540000   41.940000   58.410000
  H     72.510000   40.530000   56.580000
  H     72.490000   42.170000   56.920000
  H     70.120000   41.250000   57.360000
  H     69.620000   40.640000   58.940000
  H     70.210000   39.540000   57.700000
  H     71.170000   42.040000   60.390000
  H     72.730000   42.600000   59.690000
  H     71.160000   42.920000   58.960000
  H     74.510000   39.790000   61.660000
  H     75.750000   39.840000   60.320000
  H     74.780000   41.190000   60.600000
  H     73.590000   37.600000   60.840000
  H     72.860000   37.520000   59.250000
  H     74.560000   37.280000   59.450000
  H     74.200000   39.050000   57.380000
  H     75.630000   39.550000   58.260000
  H     78.110000   41.470000   54.900000
  H     78.360000   43.240000   54.670000
  H     76.900000   43.990000   57.290000
  H     78.560000   44.770000   56.910000
  H     78.160000   43.760000   58.320000
  H     77.510000   38.870000   57.890000
  H     79.190000   38.310000   55.520000
  H     77.550000   38.590000   55.480000
  H     76.170000   37.130000   57.460000
  H     76.420000   35.470000   57.030000
  H     75.790000   36.560000   55.830000
  H     79.480000   35.920000   54.840000
  H     77.750000   36.130000   54.370000
  H     78.280000   34.790000   55.240000
  H     81.520000   36.470000   58.350000
  H     80.530000   35.250000   59.140000
  H     81.140000   36.760000   59.880000
  H     78.220000   35.780000   60.030000
  H     77.410000   37.350000   59.590000
  H     78.870000   37.370000   60.620000
  H     80.510000   38.440000   57.630000
  H     79.680000   38.940000   59.160000
  H     80.360000   41.980000   55.690000
  H     80.300000   43.620000   55.670000
  H     80.050000   43.890000   59.160000
  H     81.710000   44.250000   59.220000
  H     80.830000   45.110000   58.170000
  H     84.940000   43.150000   55.660000
  H     85.560000   40.860000   57.590000
  H     86.120000   42.500000   57.710000
  H     87.670000   39.670000   57.450000
  H     88.260000   41.170000   58.090000
  H     88.970000   40.290000   56.640000
  H     88.930000   42.540000   55.430000
  H     87.390000   43.410000   55.070000
  H     88.110000   43.420000   56.630000
  H     86.220000   39.040000   52.740000
  H     84.980000   38.620000   53.840000
  H     84.640000   39.700000   52.500000
  H     84.820000   42.060000   52.610000
  H     86.510000   41.600000   52.570000
  H     86.000000   42.880000   53.640000
  H     84.030000   40.140000   55.590000
  H     83.580000   41.300000   54.390000
  H     80.420000   41.370000   58.820000
  H     81.570000   40.720000   57.590000
  H     82.080000   41.450000   59.000000