239
PTMA_CHAIN9_time20
 C    77.440  44.360  50.120
   C    77.740  43.670  51.470
   C    79.140  42.940  51.340
   C    76.600  42.560  51.700
   O    76.820  41.420  52.060
   O    75.360  43.080  51.670
   C    74.150  42.350  51.760
   C    73.140  43.000  52.700
   C    71.910  42.290  52.930
   C    72.130  41.480  54.210
   C    70.610  43.100  52.990
   N    71.730  41.290  51.850
   H    71.280  40.330  52.090
   C    72.210  41.540  50.480
   C    72.570  40.130  49.860
   C    71.090  42.170  49.660
   C    73.460  42.410  50.460
   C    77.700  44.840  52.520
   C    78.000  44.730  54.110
   C    77.610  43.310  54.700
   C    79.480  44.820  54.400
   O    79.940  44.700  55.520
   O    80.180  44.930  53.360
   C    81.520  45.300  53.360
   C    82.410  44.100  53.120
   C    83.960  44.410  53.050
   C    84.470  44.640  54.420
   C    84.680  43.140  52.580
   N    84.200  45.650  52.180
   O    85.370  45.750  51.760
   C    83.100  46.660  51.970
   C    83.440  47.780  52.880
   C    83.090  47.110  50.520
   C    81.640  46.210  52.190
   C    77.060  45.670  54.960
   C    77.060  47.240  54.990
   C    75.980  47.590  56.070
   C    76.600  47.610  53.590
   O    77.350  47.980  52.660
   O    75.190  47.550  53.470
   C    74.560  48.050  52.350
   C    73.340  48.740  52.910
   C    72.330  49.350  51.840
   C    72.340  50.890  51.790
   C    70.920  48.860  52.270
   N    72.710  48.870  50.490
   H    72.580  49.540  49.640
   C    73.260  47.530  50.240
   C    74.370  47.610  49.200
   C    72.230  46.600  49.690
   C    73.890  47.000  51.480
   C    78.550  47.760  55.270
   C    78.790  49.290  55.800
   C    77.980  50.310  54.960
   C    78.440  49.290  57.310
   O    77.550  50.020  57.720
   O    78.810  48.130  57.980
   C    78.390  47.900  59.310
   C    78.130  46.320  59.290
   C    77.520  45.890  60.590
   C    77.460  44.360  60.530
   C    75.980  46.240  60.720
   N    78.260  46.410  61.830
   O    78.140  45.740  62.830
   C    78.950  47.790  61.880
   C    77.940  48.830  62.470
   C    80.240  47.780  62.680
   C    79.290  48.240  60.480
   C    80.360  49.570  55.430
   C    81.310  50.510  56.320
   C    80.620  51.800  56.890
   C    81.780  49.790  57.640
   O    81.320  50.100  58.690
   O    82.580  48.680  57.450
   C    82.760  47.690  58.510
   C    82.110  46.340  58.100
   C    82.650  45.200  58.990
   C    81.470  44.380  59.540
   C    83.520  44.330  58.150
   N    83.320  45.750  60.140
   H    83.100  45.370  61.140
   C    84.430  46.740  60.070
   C    85.810  46.110  60.080
   C    84.330  47.520  61.390
   C    84.240  47.630  58.790
   C    82.460  51.000  55.410
   C    83.960  51.270  55.890
   C    84.620  52.090  54.740
   C    84.850  50.000  55.940
   O    84.560  48.850  55.520
   O    86.110  50.300  56.440
   C    87.130  49.280  56.380
   C    87.820  49.290  55.040
   C    88.830  48.150  54.890
   C    89.890  48.510  53.810
   C    88.060  46.940  54.470
   N    89.620  47.790  56.140
   O    90.600  47.050  56.070
   C    89.260  48.490  57.440
   C    90.510  48.970  58.180
   C    88.690  47.320  58.330
   C    88.210  49.540  57.370
   C    84.040  52.130  57.140
   H    77.200  43.660  49.320
   H    76.630  45.090  50.140
   H    78.330  44.870  49.740
   H    79.850  43.680  50.980
   H    79.170  42.170  50.570
   H    79.350  42.470  52.310
   H    74.310  41.330  52.100
   H    73.710  43.270  53.590
   H    72.940  43.980  52.260
   H    71.700  41.950  55.090
   H    73.180  41.210  54.340
   H    71.710  40.470  54.210
   H    70.500  43.760  52.130
   H    70.630  43.740  53.880
   H    69.740  42.450  52.960
   H    71.660  39.570  49.660
   H    73.130  40.090  48.930
   H    73.180  39.500  50.500
   H    70.670  43.140  49.940
   H    70.170  41.590  49.550
   H    71.440  42.200  48.630
   H    73.320  43.470  50.250
   H    74.120  42.220  49.610
   H    78.360  45.610  52.110
   H    76.700  45.280  52.510
   H    76.550  43.070  54.630
   H    77.980  43.220  55.730
   H    78.130  42.550  54.120
   H    81.890  45.720  54.300
   H    82.210  43.300  53.830
   H    82.150  43.600  52.180
   H    84.510  43.790  55.100
   H    85.450  45.120  54.370
   H    83.920  45.500  54.820
   H    85.750  43.380  52.570
   H    84.500  42.650  51.620
   H    84.690  42.420  53.390
   H    83.830  47.460  53.840
   H    84.270  48.350  52.450
   H    82.660  48.510  53.110
   H    84.060  47.510  50.250
   H    82.780  46.210  49.980
   H    82.310  47.860  50.370
   H    81.140  45.740  51.350
   H    81.140  47.150  52.430
   H    77.120  45.400  56.010
   H    76.030  45.310  54.850
   H    76.360  47.530  57.090
   H    75.740  48.640  55.960
   H    75.140  46.900  56.100
   H    75.260  48.780  51.920
   H    73.680  49.560  53.540
   H    72.820  48.060  53.590
   H    73.320  51.310  51.560
   H    72.050  51.280  52.770
   H    71.670  51.400  51.110
   H    70.720  49.240  53.270
   H    70.240  49.370  51.580
   H    70.760  47.790  52.260
   H    73.990  48.150  48.330
   H    74.520  46.580  48.860
   H    75.380  47.960  49.420
   H    72.620  45.590  49.820
   H    71.260  46.700  50.170
   H    72.130  46.650  48.610
   H    74.570  46.210  51.150
   H    73.290  46.340  52.100
   H    79.220  47.480  54.460
   H    79.150  47.130  55.940
   H    78.290  51.320  55.190
   H    76.930  50.140  55.200
   H    78.090  50.250  53.880
   H    77.420  48.360  59.520
   H    79.100  45.850  59.110
   H    77.590  46.200  58.350
   H    76.790  43.950  59.770
   H    77.020  44.060  61.480
   H    78.430  43.870  60.470
   H    75.560  45.820  61.630
   H    75.830  47.310  60.710
   H    75.330  45.800  59.960
   H    77.550  49.570  61.770
   H    77.130  48.380  63.050
   H    78.480  49.450  63.190
   H    80.140  47.430  63.710
   H    80.840  46.970  62.270
   H    80.760  48.740  62.720
   H    80.280  47.860  60.220
   H    79.370  49.320  60.440
   H    80.880  48.610  55.420
   H    80.380  49.750  54.350
   H    80.230  52.380  56.060
   H    81.230  52.480  57.490
   H    79.780  51.510  57.520
   H    82.210  48.010  59.390
   H    82.240  46.120  57.040
   H    81.040  46.360  58.280
   H    80.890  44.870  60.330
   H    81.910  43.530  60.070
   H    80.800  43.990  58.770
   H    83.960  43.600  58.840
   H    84.320  44.780  57.560
   H    83.050  43.550  57.560
   H    85.940  45.430  60.920
   H    86.560  46.890  60.180
   H    86.000  45.560  59.160
   H    84.790  48.500  61.260
   H    84.880  47.010  62.180
   H    83.300  47.770  61.660
   H    84.830  47.190  57.980
   H    84.510  48.660  58.990
   H    82.550  50.240  54.630
   H    82.070  51.880  54.900
   H    84.520  51.590  53.780
   H    84.010  52.970  54.510
   H    85.660  52.400  54.820
   H    86.700  48.290  56.520
   H    88.260  50.250  54.780
   H    87.000  49.190  54.330
   H    90.520  49.360  54.080
   H    89.270  48.680  52.940
   H    90.470  47.610  53.570
   H    87.540  46.550  55.350
   H    87.340  47.030  53.660
   H    88.620  46.030  54.240
   H    90.440  49.130  59.260
   H    91.290  48.220  58.010
   H    90.890  49.920  57.820
   H    87.680  47.110  57.980
   H    88.530  47.620  59.370
   H    89.170  46.340  58.320
   H    88.660  50.490  57.080
   H    87.790  49.690  58.370
   H    83.790  51.650  58.080
   H    85.090  52.420  57.140
   H    83.470  53.060  57.050
  