239
PTMA_CHAIN9_time14
 C    75.280  42.810  50.280
   C    76.080  42.850  51.660
   C    77.560  42.510  51.200
   C    75.330  41.710  52.440
   O    75.900  40.650  52.700
   O    74.040  41.960  52.680
   C    73.110  41.080  53.340
   C    73.370  40.910  54.870
   C    72.470  39.880  55.440
   C    73.030  38.560  55.140
   C    72.240  40.110  56.890
   N    71.090  39.830  54.770
   H    70.320  39.280  55.300
   C    70.720  40.650  53.570
   C    70.500  39.600  52.400
   C    69.310  41.330  53.850
   C    71.720  41.680  53.240
   C    75.890  44.270  52.240
   C    76.520  44.680  53.580
   C    76.470  43.590  54.670
   C    77.960  45.190  53.420
   O    78.600  45.450  54.430
   O    78.390  45.450  52.170
   C    79.710  45.880  51.950
   C    80.570  44.770  51.320
   C    82.050  45.140  51.310
   C    82.650  45.120  52.760
   C    82.800  44.100  50.500
   N    82.230  46.550  50.700
   O    83.280  46.890  50.220
   C    81.110  47.560  50.790
   C    81.390  48.540  51.850
   C    81.000  48.400  49.480
   C    79.710  47.030  51.080
   C    75.690  45.800  54.240
   C    75.620  47.300  53.790
   C    74.420  47.820  54.650
   C    75.380  47.570  52.260
   O    76.220  47.710  51.400
   O    74.120  47.440  51.970
   C    73.480  47.830  50.750
   C    73.290  49.340  50.680
   C    72.740  49.880  49.410
   C    73.710  50.120  48.290
   C    72.060  51.240  49.710
   N    71.730  48.920  48.890
   H    71.020  49.320  48.160
   C    71.620  47.480  49.240
   C    72.370  46.720  48.100
   C    70.170  47.120  49.290
   C    72.190  47.130  50.620
   C    76.940  48.070  54.230
   C    77.040  49.710  54.510
   C    76.190  50.500  53.350
   C    76.250  49.960  55.860
   O    75.270  50.770  55.860
   O    76.480  49.010  56.770
   C    75.700  49.110  57.980
   C    75.580  47.730  58.600
   C    74.790  47.650  59.900
   C    75.250  46.400  60.660
   C    73.280  47.580  59.690
   N    75.120  48.890  60.810
   O    74.760  48.890  61.980
   C    75.590  50.200  60.220
   C    74.430  51.130  60.110
   C    76.640  50.830  61.280
   C    76.330  50.140  58.910
   C    78.500  50.210  54.520
   C    79.050  51.340  55.520
   C    78.100  52.580  55.650
   C    79.270  50.690  56.890
   O    79.050  51.300  57.920
   O    79.530  49.330  56.750
   C    79.520  48.400  57.790
   C    79.860  47.070  57.270
   C    80.010  46.010  58.370
   C    78.930  44.940  58.230
   C    81.330  45.150  58.200
   N    79.910  46.690  59.760
   H    79.380  46.170  60.560
   C    80.560  47.980  60.020
   C    82.020  47.860  60.630
   C    79.640  48.760  60.980
   C    80.640  48.780  58.760
   C    80.410  51.930  54.880
   C    81.770  51.890  55.730
   C    82.750  52.590  54.860
   C    82.350  50.470  55.880
   O    81.890  49.570  55.150
   O    83.410  50.360  56.700
   C    84.170  49.190  56.490
   C    85.230  49.310  55.440
   C    86.220  48.190  55.320
   C    87.540  48.680  54.810
   C    85.720  47.220  54.120
   N    86.420  47.420  56.640
   O    87.020  46.360  56.630
   C    86.000  48.150  57.960
   C    87.240  48.710  58.660
   C    85.430  47.020  58.880
   C    84.970  49.170  57.790
   C    81.720  52.700  57.100
   H    75.710  43.530  49.590
   H    75.440  41.800  49.900
   H    74.200  42.920  50.400
   H    78.220  42.690  52.050
   H    78.000  43.120  50.420
   H    77.600  41.480  50.870
   H    73.120  40.080  52.900
   H    74.410  40.650  55.080
   H    73.160  41.880  55.340
   H    73.220  38.260  54.110
   H    72.340  37.780  55.460
   H    73.900  38.380  55.760
   H    71.970  41.130  57.170
   H    73.040  39.770  57.540
   H    71.380  39.480  57.110
   H    71.210  38.780  52.450
   H    69.530  39.130  52.580
   H    70.490  39.980  51.380
   H    68.600  40.580  54.180
   H    68.950  41.710  52.900
   H    69.400  42.080  54.640
   H    71.690  42.550  53.900
   H    71.560  42.030  52.220
   H    76.060  44.990  51.430
   H    74.800  44.350  52.290
   H    77.090  42.720  54.430
   H    75.480  43.150  54.750
   H    76.790  43.880  55.670
   H    80.250  46.280  52.800
   H    80.470  43.870  51.920
   H    80.140  44.400  50.390
   H    82.780  44.090  53.110
   H    83.620  45.600  52.770
   H    82.030  45.630  53.490
   H    83.850  44.360  50.450
   H    82.390  44.030  49.490
   H    82.760  43.100  50.930
   H    81.100  48.130  52.820
   H    82.430  48.850  51.760
   H    80.820  49.470  51.810
   H    80.220  49.160  49.590
   H    81.940  48.920  49.290
   H    80.610  47.820  48.650
   H    79.190  46.630  50.210
   H    79.000  47.750  51.480
   H    76.130  45.980  55.230
   H    74.710  45.460  54.580
   H    73.440  47.410  54.410
   H    74.620  47.590  55.700
   H    74.190  48.890  54.610
   H    74.170  47.480  49.980
   H    74.260  49.840  50.720
   H    72.600  49.580  51.490
   H    74.500  50.820  48.600
   H    73.230  50.400  47.360
   H    74.370  49.260  48.130
   H    72.820  52.030  49.710
   H    71.330  51.490  48.940
   H    71.460  51.240  50.620
   H    72.730  45.760  48.490
   H    73.300  47.190  47.780
   H    71.710  46.380  47.300
   H    69.610  47.540  50.120
   H    69.640  47.490  48.410
   H    70.210  46.030  49.290
   H    72.240  46.050  50.760
   H    71.460  47.530  51.330
   H    77.610  47.830  53.400
   H    77.410  47.540  55.050
   H    75.130  50.290  53.450
   H    76.390  50.170  52.330
   H    76.380  51.570  53.410
   H    74.720  49.460  57.640
   H    76.590  47.470  58.890
   H    75.280  46.990  57.850
   H    74.830  45.520  60.180
   H    74.860  46.300  61.670
   H    76.340  46.320  60.650
   H    72.920  46.930  58.900
   H    72.810  47.310  60.630
   H    72.880  48.560  59.430
   H    74.770  52.160  59.980
   H    73.850  50.820  59.240
   H    73.820  51.140  61.010
   H    77.080  50.120  61.980
   H    77.340  51.570  60.870
   H    75.970  51.440  61.880
   H    77.280  49.710  59.200
   H    76.560  51.050  58.350
   H    79.150  49.340  54.590
   H    78.820  50.390  53.490
   H    77.240  52.300  56.250
   H    77.990  53.000  54.650
   H    78.600  53.350  56.250
   H    78.480  48.410  58.130
   H    80.840  47.140  56.810
   H    79.190  46.670  56.510
   H    78.930  44.120  58.950
   H    79.090  44.400  57.300
   H    77.960  45.420  58.090
   H    81.540  44.640  57.260
   H    81.320  44.340  58.930
   H    82.170  45.820  58.370
   H    82.390  48.820  60.990
   H    82.650  47.490  59.830
   H    82.070  47.070  61.380
   H    78.880  49.330  60.440
   H    80.140  49.600  61.460
   H    79.060  48.200  61.720
   H    81.630  48.720  58.310
   H    80.670  49.820  59.080
   H    80.600  51.560  53.870
   H    80.230  52.990  54.710
   H    82.510  53.630  54.650
   H    83.810  52.570  55.150
   H    82.830  52.120  53.880
   H    83.540  48.300  56.520
   H    85.800  50.210  55.640
   H    84.680  49.470  54.510
   H    88.260  47.850  54.830
   H    88.000  49.410  55.480
   H    87.520  49.230  53.870
   H    84.810  46.770  54.500
   H    85.620  47.660  53.130
   H    86.470  46.440  53.950
   H    87.820  47.880  59.060
   H    87.880  49.250  57.960
   H    86.950  49.410  59.440
   H    85.150  47.470  59.830
   H    86.190  46.250  59.010
   H    84.580  46.630  58.320
   H    85.320  50.170  58.070
   H    84.220  49.080  58.590
   H    82.760  52.890  57.360
   H    81.210  53.660  57.070
   H    81.390  52.110  57.960
  