239
PTMA_CHAIN2_time5
 C    99.450  18.000  89.290
   C    98.080  18.680  89.470
   C    98.330  20.100  90.140
   C    97.350  17.730  90.450
   O    96.990  18.110  91.570
   O    97.180  16.420  89.960
   C    96.530  15.330  90.680
   C    96.200  14.230  89.680
   C    95.610  12.960  90.390
   C    94.140  12.830  89.990
   C    96.320  11.630  90.020
   N    95.570  13.110  91.860
   H    94.710  12.780  92.450
   C    96.670  13.780  92.600
   C    96.150  14.580  93.800
   C    97.630  12.650  93.050
   C    97.430  14.730  91.660
   C    97.400  18.780  88.070
   C    96.150  19.710  87.880
   C    95.130  19.350  88.910
   C    96.560  21.250  88.020
   O    96.000  22.020  88.780
   O    97.650  21.620  87.260
   C    98.300  22.850  87.510
   C    99.750  22.690  87.220
   C    100.540  23.980  87.270
   C    101.090  24.340  88.670
   C    101.680  23.870  86.290
   N    99.680  25.160  86.960
   H    100.190  26.090  86.690
   C    98.240  25.190  86.750
   C    97.620  25.760  87.980
   C    98.010  26.140  85.560
   C    97.730  23.810  86.520
   C    95.620  19.560  86.400
   C    94.140  19.640  85.870
   C    93.560  18.230  86.230
   C    94.300  19.780  84.320
   O    95.210  20.400  83.750
   O    93.410  19.090  83.600
   C    93.810  18.550  82.340
   C    93.230  19.460  81.260
   C    93.320  18.730  79.880
   C    94.390  19.400  79.000
   C    92.020  18.900  79.080
   N    93.740  17.310  79.910
   H    94.060  16.800  79.000
   C    93.610  16.430  81.110
   C    95.030  15.770  81.330
   C    92.600  15.340  80.760
   C    93.140  17.190  82.280
   C    93.310  20.860  86.510
   C    92.490  22.020  85.780
   C    93.310  22.940  84.830
   C    91.280  21.560  84.940
   O    90.800  22.340  84.120
   O    90.840  20.340  85.160
   C    89.600  19.840  84.590
   C    89.770  19.270  83.140
   C    88.600  18.400  82.620
   C    89.220  17.170  81.990
   C    87.790  19.130  81.560
   N    87.710  17.840  83.680
   H    86.790  17.350  83.390
   C    87.900  18.110  85.090
   C    86.720  19.050  85.590
   C    87.600  16.700  85.730
   C    89.220  18.670  85.480
   C    91.970  23.020  86.900
   C    90.700  22.920  87.890
   C    89.440  23.410  87.120
   C    90.410  21.450  88.280
   O    89.280  20.930  88.120
   O    91.400  20.930  89.010
   C    91.110  19.860  89.920
   C    91.410  18.570  89.230
   C    91.240  17.360  90.120
   C    89.910  16.620  89.730
   C    92.460  16.420  90.090
   N    91.050  17.770  91.530
   H    90.330  17.280  92.180
   C    91.740  18.940  92.090
   C    92.940  18.480  92.840
   C    90.730  19.540  93.110
   C    92.100  19.960  91.020
   C    90.890  23.680  89.220
   C    90.970  25.250  89.280
   C    91.710  25.960  88.080
   C    91.710  25.670  90.630
   O    91.160  26.100  91.660
   O    93.050  25.450  90.500
   C    93.950  25.420  91.610
   C    94.050  23.940  92.010
   C    95.340  23.580  92.900
   C    96.190  22.550  92.130
   C    94.910  22.950  94.240
   N    96.230  24.760  93.180
   O    96.940  24.720  94.180
   C    96.310  25.990  92.230
   C    97.750  26.010  91.660
   C    96.100  27.370  93.050
   C    95.280  25.880  91.080
   C    89.540  25.820  89.340
   H    100.050  18.570  88.580
   H    100.010  17.830  90.200
   H    99.390  16.970  88.940
   H    98.920  20.760  89.500
   H    98.950  20.010  91.030
   H    97.480  20.620  90.580
   H    95.590  15.720  91.080
   H    95.520  14.570  88.900
   H    97.080  13.930  89.110
   H    93.540  13.740  90.010
   H    93.710  12.060  90.630
   H    94.100  12.480  88.960
   H    95.990  10.750  90.560
   H    97.390  11.680  90.160
   H    96.170  11.410  88.960
   H    95.530  13.990  94.480
   H    96.890  15.110  94.410
   H    95.480  15.400  93.540
   H    98.650  12.950  92.860
   H    97.470  11.730  92.480
   H    97.490  12.390  94.100
   H    98.230  14.210  91.130
   H    98.010  15.440  92.250
   H    98.110  19.140  87.330
   H    97.100  17.810  87.680
   H    94.150  19.800  88.790
   H    95.450  19.750  89.870
   H    95.000  18.280  89.100
   H    98.150  23.150  88.550
   H    100.140  22.050  88.010
   H    99.940  22.200  86.270
   H    100.330  24.490  89.440
   H    101.870  23.660  89.020
   H    101.600  25.300  88.590
   H    102.340  24.740  86.340
   H    101.240  23.690  85.310
   H    102.280  23.010  86.580
   H    97.890  25.380  88.970
   H    97.760  26.840  88.000
   H    96.540  25.630  87.940
   H    97.020  25.990  85.150
   H    98.120  27.220  85.710
   H    98.600  25.930  84.670
   H    97.990  23.540  85.500
   H    96.640  23.800  86.500
   H    95.990  18.610  86.010
   H    96.240  20.270  85.860
   H    93.910  17.460  85.540
   H    94.000  17.930  87.180
   H    92.470  18.230  86.310
   H    94.890  18.490  82.250
   H    93.720  20.440  81.180
   H    92.220  19.780  81.490
   H    94.400  20.490  79.090
   H    94.370  19.090  77.960
   H    95.360  19.180  79.440
   H    92.120  18.650  78.020
   H    91.270  18.200  79.440
   H    91.630  19.920  79.090
   H    94.950  14.820  81.840
   H    95.810  16.310  81.870
   H    95.610  15.520  80.430
   H    91.800  15.740  80.140
   H    93.110  14.510  80.270
   H    92.200  14.840  81.640
   H    93.310  16.560  83.150
   H    92.060  17.300  82.290
   H    93.950  21.320  87.260
   H    92.610  20.350  87.180
   H    94.180  23.370  85.320
   H    92.690  23.780  84.500
   H    93.640  22.510  83.890
   H    88.860  20.630  84.620
   H    90.740  18.760  83.140
   H    89.840  20.130  82.480
   H    89.880  17.350  81.150
   H    88.370  16.570  81.640
   H    89.820  16.610  82.700
   H    87.500  20.100  81.990
   H    88.420  19.240  80.680
   H    86.900  18.560  81.300
   H    86.980  20.090  85.440
   H    85.840  18.920  84.970
   H    86.390  18.810  86.600
   H    88.110  15.940  85.120
   H    87.910  16.570  86.770
   H    86.540  16.440  85.730
   H    89.940  17.870  85.660
   H    89.190  18.970  86.530
   H    92.780  23.190  87.610
   H    91.880  23.950  86.330
   H    89.490  24.360  86.590
   H    88.570  23.500  87.770
   H    89.140  22.860  86.230
   H    90.060  19.880  90.230
   H    92.420  18.580  88.820
   H    90.750  18.480  88.360
   H    89.870  16.410  88.660
   H    89.060  17.290  89.880
   H    89.780  15.650  90.210
   H    92.850  16.170  89.100
   H    92.200  15.500  90.620
   H    93.340  16.780  90.620
   H    92.720  17.660  93.520
   H    93.370  19.300  93.430
   H    93.720  18.140  92.170
   H    91.210  20.400  93.570
   H    90.550  18.900  93.970
   H    89.760  19.810  92.710
   H    93.100  19.760  90.620
   H    92.030  20.980  91.400
   H    90.110  23.410  89.940
   H    91.860  23.390  89.620
   H    91.090  25.840  87.190
   H    91.700  27.040  88.160
   H    92.720  25.570  87.920
   H    93.690  26.030  92.480
   H    94.000  23.410  91.050
   H    93.150  23.530  92.460
   H    95.690  21.580  92.120
   H    97.200  22.460  92.540
   H    96.300  22.900  91.100
   H    94.650  23.820  94.850
   H    94.200  22.130  94.250
   H    95.820  22.570  94.710
   H    97.870  26.640  90.770
   H    98.520  26.350  92.350
   H    98.020  25.010  91.340
   H    96.900  27.450  93.780
   H    95.150  27.350  93.590
   H    96.200  28.190  92.350
   H    95.640  25.260  90.260
   H    95.110  26.840  90.590
   H    88.920  25.190  89.980
   H    89.490  26.820  89.770
   H    89.060  25.820  88.360
  