239
PTMA_CHAIN4_time0point0005
 C    104.560  96.700  19.900
   C    104.050  95.270  20.200
   C    102.760  95.090  19.400
   C    103.730  95.270  21.710
   O    102.600  95.250  22.170
   O    104.860  95.450  22.450
   C    104.680  95.930  23.810
   C    104.380  94.800  24.790
   C    104.130  95.360  26.220
   C    102.620  95.720  26.320
   C    104.400  94.200  27.220
   N    104.900  96.620  26.440
   O    105.000  96.930  27.840
   C    106.200  96.760  25.760
   C    106.790  98.180  25.960
   C    107.280  95.750  26.200
   C    105.990  96.610  24.210
   C    105.190  94.270  19.810
   C    104.920  92.740  19.510
   C    104.170  92.120  20.690
   C    104.120  92.610  18.190
   O    103.120  91.930  18.050
   O    104.720  93.330  17.190
   C    104.260  93.140  15.820
   C    103.430  94.340  15.340
   C    104.200  95.360  14.480
   C    103.160  96.430  14.040
   C    105.210  96.130  15.360
   N    105.000  94.740  13.380
   O    104.510  95.060  12.080
   C    105.310  93.280  13.480
   C    104.260  92.320  12.850
   C    106.660  93.030  12.770
   C    105.500  92.890  14.960
   C    106.320  92.070  19.270
   C    106.660  90.510  19.340
   C    106.960  90.180  20.820
   C    107.930  90.450  18.460
   O    107.890  90.600  17.250
   O    109.090  90.360  19.170
   C    110.310  90.570  18.410
   C    110.700  89.340  17.600
   C    112.010  89.570  16.780
   C    111.680  90.480  15.570
   C    112.390  88.170  16.220
   N    113.090  90.040  17.690
   O    114.280  90.340  16.940
   C    112.800  91.110  18.680
   C    112.800  92.560  18.130
   C    113.880  91.050  19.790
   C    111.460  90.850  19.390
   C    105.520  89.560  18.790
   C    105.680  88.110  18.190
   C    106.660  88.100  16.990
   C    106.210  86.950  19.050
   O    105.940  85.780  18.780
   O    107.140  87.320  19.970
   C    107.940  86.240  20.530
   C    109.350  86.750  20.840
   C    109.770  86.710  22.330
   C    109.110  87.900  23.100
   C    111.300  87.040  22.370
   N    109.370  85.460  23.040
   O    110.470  84.600  23.350
   C    108.210  84.690  22.520
   C    108.580  83.480  21.610
   C    107.420  84.150  23.740
   C    107.250  85.600  21.730
   C    104.300  87.660  17.540
   C    102.950  87.420  18.310
   C    102.210  86.300  17.530
   C    103.120  86.790  19.710
   O    103.290  85.580  19.900
   O    102.970  87.690  20.720
   C    102.410  87.120  21.940
   C    103.470  86.670  22.930
   C    102.800  85.940  24.130
   C    102.680  84.440  23.750
   C    103.770  86.040  25.340
   N    101.410  86.450  24.350
   O    100.910  86.050  25.640
   C    101.130  87.870  24.060
   C    101.880  88.870  24.990
   C    99.620  88.190  24.180
   C    101.530  88.210  22.580
   C    102.010  88.690  18.400
   C    101.090  89.210  17.220
   C    101.890  89.490  15.940
   C    100.350  90.490  17.710
   O    99.930  90.630  18.850
   O    100.070  91.330  16.670
   C    99.060  92.350  16.870
   C    99.480  93.590  16.090
   C    98.370  94.680  16.030
   C    98.770  95.630  14.870
   C    98.420  95.500  17.340
   N    97.000  94.090  15.960
   O    96.070  94.980  15.310
   C    96.860  92.710  15.470
   C    97.260  92.500  13.990
   C    95.400  92.200  15.610
   C    97.710  91.780  16.400
   C    99.930  88.270  16.900
   H    104.720  96.840  18.830
   H    103.840  97.440  20.250
   H    105.500  96.920  20.390
   H    102.940  95.190  18.330
   H    102.020  95.860  19.650
   H    102.270  94.140  19.600
   H    103.880  96.670  23.800
   H    103.530  94.220  24.440
   H    105.220  94.100  24.770
   H    102.350  96.530  25.640
   H    102.340  96.020  27.330
   H    102.010  94.850  26.080
   H    103.850  93.310  26.920
   H    104.070  94.460  28.220
   H    105.460  93.930  27.260
   H    107.130  98.320  26.980
   H    107.660  98.360  25.320
   H    106.060  98.950  25.730
   H    107.030  94.730  25.930
   H    107.450  95.770  27.280
   H    108.230  95.980  25.730
   H    106.830  96.060  23.790
   H    106.000  97.570  23.700
   H    105.700  94.680  18.940
   H    105.950  94.320  20.590
   H    103.920  91.070  20.550
   H    103.210  92.610  20.880
   H    104.750  92.200  21.610
   H    103.640  92.250  15.770
   H    102.610  93.940  14.750
   H    102.960  94.830  16.190
   H    102.360  96.000  13.440
   H    102.680  96.890  14.910
   H    103.620  97.240  13.470
   H    105.720  96.900  14.790
   H    106.000  95.510  15.790
   H    104.710  96.620  16.200
   H    104.520  91.290  13.080
   H    103.250  92.500  13.220
   H    104.220  92.410  11.760
   H    106.590  93.200  11.700
   H    107.430  93.690  13.170
   H    106.990  92.000  12.900
   H    106.360  93.430  15.360
   H    105.770  91.840  15.050
   H    107.050  92.540  19.930
   H    106.660  92.440  18.300
   H    106.040  90.060  21.390
   H    107.570  89.290  20.930
   H    107.530  90.980  21.300
   H    110.160  91.460  17.790
   H    109.880  89.060  16.940
   H    110.820  88.480  18.260
   H    112.530  90.630  14.910
   H    111.360  91.480  15.870
   H    110.880  90.040  14.970
   H    112.650  87.470  17.010
   H    111.560  87.730  15.670
   H    113.240  88.230  15.540
   H    112.620  93.280  18.930
   H    112.030  92.740  17.390
   H    113.750  92.850  17.680
   H    113.940  90.060  20.230
   H    114.870  91.320  19.410
   H    113.640  91.730  20.610
   H    111.150  91.690  20.020
   H    111.530  90.000  20.060
   H    105.020  90.130  18.000
   H    104.790  89.450  19.590
   H    106.440  88.900  16.280
   H    106.590  87.160  16.440
   H    107.700  88.150  17.310
   H    108.060  85.490  19.750
   H    109.500  87.740  20.430
   H    110.030  86.100  20.280
   H    109.340  88.850  22.630
   H    109.460  87.960  24.130
   H    108.020  87.840  23.150
   H    111.670  87.070  23.390
   H    111.880  86.300  21.820
   H    111.490  88.010  21.910
   H    107.680  83.050  21.170
   H    109.240  83.760  20.800
   H    109.060  82.690  22.190
   H    107.140  84.970  24.400
   H    106.510  83.650  23.440
   H    108.020  83.450  24.320
   H    106.790  86.350  22.380
   H    106.390  85.030  21.380
   H    104.100  88.380  16.740
   H    104.520  86.740  16.990
   H    102.100  86.550  16.470
   H    101.220  86.110  17.950
   H    102.750  85.350  17.530
   H    101.780  86.280  21.660
   H    104.020  87.550  23.260
   H    104.190  86.030  22.420
   H    103.660  84.020  23.510
   H    102.040  84.290  22.880
   H    102.280  83.850  24.570
   H    104.760  85.690  25.060
   H    103.460  85.410  26.180
   H    103.860  87.060  25.710
   H    101.680  88.680  26.040
   H    101.580  89.900  24.790
   H    102.960  88.860  24.840
   H    99.050  87.490  23.570
   H    99.410  89.200  23.840
   H    99.240  88.130  25.200
   H    102.050  89.160  22.520
   H    100.630  88.310  21.960
   H    101.320  88.540  19.230
   H    102.630  89.520  18.720
   H    102.310  88.580  15.510
   H    101.280  89.930  15.150
   H    102.710  90.190  16.130
   H    99.000  92.600  17.930
   H    99.800  93.300  15.090
   H    100.380  94.020  16.510
   H    98.700  95.140  13.900
   H    99.800  95.970  14.990
   H    98.160  96.540  14.830
   H    97.730  96.340  17.330
   H    98.170  94.890  18.210
   H    99.420  95.920  17.520
   H    97.120  91.460  13.710
   H    96.660  93.110  13.310
   H    98.310  92.740  13.790
   H    95.330  91.130  15.420
   H    94.720  92.690  14.920
   H    95.020  92.350  16.620
   H    97.840  90.820  15.910
   H    97.130  91.560  17.300
   H    99.490  87.850  17.810
   H    99.110  88.790  16.400
   H    100.210  87.440  16.250
  