239
PTMA_CHAIN7_time18
 C    9.210  10.410  4.410
   C    8.870  11.740  3.850
   C    8.950  11.440  2.290
   C    10.010  12.710  4.190
   O    10.330  13.100  5.360
   O    10.820  13.080  3.160
   C    12.040  13.830  3.270
   C    13.200  12.850  3.200
   C    14.540  13.460  3.460
   C    14.840  13.280  4.970
   C    15.610  12.760  2.620
   N    14.510  14.860  3.200
   H    15.370  15.430  3.570
   C    13.540  15.520  2.280
   C    13.090  16.810  2.920
   C    14.250  15.870  0.970
   C    12.320  14.680  2.060
   C    7.410  12.190  4.240
   C    7.030  12.820  5.700
   C    7.670  11.910  6.810
   C    7.550  14.260  5.920
   O    7.250  14.870  6.980
   O    8.020  14.810  4.800
   C    8.170  16.190  4.690
   C    9.410  16.750  5.410
   C    9.450  18.290  5.220
   C    8.470  19.110  6.040
   C    10.900  18.680  5.760
   N    9.310  18.690  3.800
   O    9.800  19.740  3.390
   C    8.410  17.890  2.890
   C    7.090  18.620  2.940
   C    9.000  17.930  1.430
   C    8.290  16.320  3.220
   C    5.440  12.580  5.870
   C    4.220  13.510  5.460
   C    2.940  12.580  5.650
   C    4.490  13.980  4.060
   O    5.150  15.020  3.770
   O    4.020  13.070  3.200
   C    4.180  13.220  1.810
   C    2.780  13.220  1.250
   C    2.730  13.550  -0.240
   C    2.830  15.040  -0.510
   C    1.410  13.080  -0.810
   N    3.860  12.880  -1.030
   H    3.740  12.700  -2.100
   C    5.120  12.400  -0.380
   C    6.270  13.370  -0.640
   C    5.410  11.050  -1.120
   C    4.920  12.110  1.130
   C    4.080  14.710  6.550
   C    2.910  15.790  6.610
   C    2.530  16.360  5.170
   C    1.720  15.060  7.220
   O    1.760  13.930  7.750
   O    0.560  15.700  7.080
   C    -0.690  15.040  7.240
   C    -1.620  15.790  8.050
   C    -3.030  15.310  8.170
   C    -3.910  16.500  8.660
   C    -3.160  14.220  9.200
   N    -3.580  14.860  6.890
   O    -4.790  14.610  6.830
   C    -2.630  14.300  5.880
   C    -2.490  12.800  6.180
   C    -3.350  14.440  4.500
   C    -1.230  14.980  5.850
   C    3.350  17.030  7.450
   C    3.650  17.070  8.980
   C    3.900  18.580  9.310
   C    2.460  16.660  9.820
   O    1.440  17.330  9.880
   O    2.660  15.540  10.540
   C    1.580  14.980  11.210
   C    1.690  13.540  11.630
   C    0.350  13.060  12.110
   C    -0.220  12.370  10.860
   C    0.430  11.920  13.200
   N    -0.610  14.120  12.550
   H    -1.680  13.890  12.610
   C    -0.140  15.510  12.860
   C    -0.290  15.610  14.360
   C    -1.120  16.570  12.340
   C    1.300  15.750  12.440
   C    4.930  16.270  9.190
   C    5.890  16.280  10.490
   C    6.910  17.480  10.300
   C    6.700  14.930  10.690
   O    6.260  13.880  10.220
   O    7.860  15.120  11.320
   C    8.970  14.240  11.150
   C    9.990  15.040  10.320
   C    11.250  14.250  10.170
   C    12.370  15.270  9.890
   C    11.010  13.330  8.950
   N    11.610  13.290  11.330
   O    12.810  13.030  11.440
   C    10.550  12.830  12.400
   C    11.220  12.530  13.770
   C    10.080  11.410  12.020
   C    9.430  13.800  12.550
   C    5.110  16.500  11.870
   H    9.570  10.490  5.440
   H    8.430  9.660  4.270
   H    10.150  10.050  4.020
   H    8.120  10.760  2.120
   H    9.860  10.930  1.960
   H    8.840  12.350  1.700
   H    11.930  14.480  4.140
   H    12.900  12.070  3.900
   H    13.170  12.320  2.240
   H    15.360  12.350  5.250
   H    13.840  13.310  5.380
   H    15.420  14.080  5.420
   H    15.580  12.870  1.530
   H    15.410  11.690  2.600
   H    16.660  12.950  2.830
   H    13.000  16.680  3.990
   H    13.950  17.470  2.910
   H    12.250  17.340  2.460
   H    13.510  16.290  0.280
   H    14.760  15.080  0.430
   H    14.910  16.720  1.140
   H    12.450  14.120  1.130
   H    11.480  15.360  1.920
   H    7.220  12.920  3.450
   H    6.790  11.330  4.000
   H    8.750  12.010  6.870
   H    7.480  10.860  6.590
   H    7.330  12.120  7.820
   H    7.330  16.720  5.140
   H    9.380  16.490  6.470
   H    10.320  16.270  5.050
   H    8.430  20.130  5.660
   H    7.470  18.680  6.030
   H    8.730  19.140  7.100
   H    11.580  18.290  5.010
   H    11.130  18.130  6.680
   H    11.030  19.740  5.950
   H    7.170  19.690  2.770
   H    6.410  18.160  2.230
   H    6.560  18.590  3.890
   H    8.180  17.600  0.790
   H    9.130  18.970  1.110
   H    9.890  17.330  1.280
   H    9.160  15.770  2.870
   H    7.410  15.830  2.800
   H    5.350  12.470  6.950
   H    5.190  11.640  5.380
   H    2.020  13.150  5.530
   H    3.020  11.740  4.960
   H    2.830  12.060  6.600
   H    4.640  14.180  1.570
   H    2.230  13.960  1.830
   H    2.310  12.250  1.370
   H    3.550  15.610  0.070
   H    1.870  15.480  -0.230
   H    2.980  15.180  -1.580
   H    0.600  13.190  -0.090
   H    1.160  13.650  -1.700
   H    1.390  12.020  -1.070
   H    6.220  14.270  -0.030
   H    6.410  13.430  -1.710
   H    7.210  13.030  -0.200
   H    4.680  10.280  -0.850
   H    5.390  11.130  -2.200
   H    6.390  10.660  -0.850
   H    5.910  12.020  1.590
   H    4.500  11.120  1.340
   H    4.960  15.320  6.370
   H    4.090  14.250  7.540
   H    3.420  16.800  4.700
   H    1.840  17.200  5.170
   H    2.150  15.590  4.490
   H    -0.600  14.050  7.690
   H    -1.530  16.820  7.710
   H    -1.200  15.900  9.050
   H    -3.750  16.670  9.730
   H    -4.980  16.320  8.560
   H    -3.780  17.330  7.960
   H    -2.570  14.500  10.080
   H    -4.190  13.910  9.340
   H    -2.730  13.250  8.940
   H    -1.850  12.300  5.460
   H    -1.960  12.630  7.120
   H    -3.480  12.360  6.220
   H    -3.380  15.490  4.230
   H    -2.750  14.090  3.660
   H    -4.370  14.070  4.410
   H    -1.290  16.020  5.520
   H    -0.490  14.640  5.130
   H    4.170  17.600  7.020
   H    2.560  17.750  7.250
   H    4.900  18.970  9.120
   H    3.800  18.660  10.390
   H    3.170  19.310  8.930
   H    0.790  15.100  10.460
   H    2.500  13.430  12.350
   H    1.900  12.950  10.740
   H    -0.450  13.040  10.030
   H    -1.150  11.890  11.160
   H    0.350  11.530  10.480
   H    0.880  10.980  12.880
   H    -0.530  11.580  13.580
   H    1.040  12.220  14.050
   H    -1.280  15.330  14.720
   H    0.000  16.610  14.670
   H    0.440  14.990  14.890
   H    -1.330  16.450  11.280
   H    -0.850  17.610  12.500
   H    -2.130  16.400  12.730
   H    2.000  15.590  13.260
   H    1.350  16.830  12.250
   H    4.650  15.210  9.170
   H    5.460  16.190  8.240
   H    6.360  18.410  10.370
   H    7.600  17.500  11.150
   H    7.380  17.490  9.320
   H    8.710  13.320  10.640
   H    10.230  15.950  10.890
   H    9.450  15.170  9.380
   H    13.340  14.820  9.660
   H    12.630  15.780  10.820
   H    12.180  16.110  9.230
   H    11.610  12.420  8.860
   H    9.970  13.030  8.960
   H    11.100  13.900  8.030
   H    10.520  11.950  14.380
   H    12.160  11.970  13.700
   H    11.470  13.490  14.210
   H    9.340  11.500  11.220
   H    9.660  10.750  12.780
   H    10.950  11.040  11.480
   H    9.640  14.650  13.200
   H    8.590  13.290  13.010
   H    4.530  15.590  12.060
   H    5.810  16.670  12.680
   H    4.470  17.380  11.910
  