239
PTMA_CHAIN1_time14
 C    79.210  26.380  67.690
   C    77.870  26.550  66.870
   C    77.400  25.120  66.520
   C    78.320  27.240  65.530
   O    78.410  26.630  64.470
   O    78.850  28.460  65.800
   C    79.330  29.410  64.770
   C    79.510  30.760  65.490
   C    80.190  31.890  64.740
   C    79.220  33.060  64.650
   C    81.460  32.530  65.420
   N    80.540  31.400  63.360
   H    80.600  32.160  62.570
   C    80.990  30.010  63.010
   C    80.510  29.640  61.590
   C    82.530  30.140  63.130
   C    80.610  29.030  64.140
   C    76.840  27.260  67.780
   C    75.350  27.430  67.340
   C    75.270  28.020  65.940
   C    74.560  26.080  67.460
   O    74.120  25.500  66.470
   O    74.630  25.440  68.670
   C    74.010  24.190  68.930
   C    74.840  22.960  68.550
   C    74.100  21.650  68.780
   C    73.040  21.320  67.660
   C    75.190  20.510  68.770
   N    73.340  21.560  70.140
   O    72.660  20.540  70.480
   C    72.880  22.810  70.780
   C    71.440  23.090  70.420
   C    72.840  22.490  72.330
   C    73.840  24.000  70.390
   C    74.800  28.590  68.390
   C    73.290  28.910  68.710
   C    73.440  30.290  69.470
   C    72.710  27.810  69.640
   O    72.090  26.890  69.180
   O    72.730  28.180  70.930
   C    72.120  27.360  71.980
   C    70.620  27.550  72.100
   C    70.030  26.850  73.370
   C    69.180  25.700  72.880
   C    69.180  27.700  74.370
   N    71.180  26.260  74.190
   H    70.940  25.300  74.650
   C    72.490  26.900  74.430
   C    73.540  25.810  74.780
   C    72.290  27.810  75.670
   C    72.820  27.800  73.210
   C    72.420  29.150  67.440
   C    71.010  29.890  67.510
   C    70.200  29.390  68.800
   C    71.140  31.440  67.610
   O    70.380  32.160  68.200
   O    72.160  31.890  66.950
   C    72.530  33.270  67.080
   C    74.020  33.240  66.810
   C    74.640  34.680  66.790
   C    75.720  34.750  65.730
   C    75.280  34.890  68.200
   N    73.670  35.810  66.570
   O    74.070  37.010  66.710
   C    72.230  35.510  66.040
   C    71.150  36.220  66.950
   C    72.100  36.030  64.580
   C    71.910  34.000  65.960
   C    70.110  29.440  66.370
   C    70.050  30.000  64.890
   C    69.250  31.300  64.980
   C    71.450  30.320  64.300
   O    72.310  29.440  64.240
   O    71.500  31.560  63.710
   C    72.370  31.730  62.560
   C    71.890  32.910  61.740
   C    72.580  33.050  60.450
   C    71.980  32.100  59.380
   C    72.570  34.480  59.940
   N    74.000  32.630  60.510
   H    74.600  32.590  59.600
   C    74.770  32.370  61.780
   C    75.540  33.630  61.970
   C    75.640  31.120  61.620
   C    73.830  32.160  62.970
   C    69.270  29.030  63.980
   C    69.790  27.790  63.160
   C    70.580  26.810  64.090
   C    70.630  28.250  61.900
   O    70.660  29.430  61.490
   O    71.640  27.450  61.480
   C    72.430  27.630  60.240
   C    73.720  26.830  60.350
   C    74.520  27.020  59.080
   C    75.680  26.070  59.270
   C    75.200  28.400  58.900
   N    73.640  26.630  57.910
   O    74.070  25.910  57.010
   C    72.160  27.140  57.810
   C    71.440  26.300  56.730
   C    72.260  28.550  57.210
   C    71.510  27.190  59.120
   C    68.570  27.090  62.660
   H    79.980  25.730  67.260
   H    79.630  27.350  67.940
   H    78.910  25.830  68.580
   H    78.270  24.620  66.080
   H    76.570  25.080  65.810
   H    77.020  24.620  67.410
   H    78.520  29.700  64.090
   H    78.520  31.100  65.780
   H    80.070  30.570  66.410
   H    79.070  33.510  65.630
   H    78.240  32.910  64.210
   H    79.590  33.850  64.000
   H    82.070  31.820  65.970
   H    81.220  33.340  66.100
   H    81.990  33.120  64.670
   H    81.110  30.160  60.850
   H    80.630  28.570  61.420
   H    79.500  29.950  61.350
   H    83.040  29.200  62.950
   H    82.910  30.530  64.070
   H    82.960  30.870  62.440
   H    81.340  28.960  64.950
   H    80.400  28.010  63.800
   H    76.880  26.720  68.730
   H    77.210  28.280  67.850
   H    74.260  28.300  65.640
   H    75.650  27.260  65.250
   H    75.980  28.840  65.800
   H    73.020  24.220  68.470
   H    75.090  22.980  67.490
   H    75.730  22.890  69.180
   H    72.290  22.120  67.660
   H    73.500  21.180  66.690
   H    72.540  20.400  67.950
   H    75.730  20.470  67.820
   H    74.680  19.580  68.990
   H    75.850  20.510  69.640
   H    70.920  23.750  71.120
   H    71.160  23.440  69.430
   H    70.840  22.180  70.460
   H    72.730  23.330  73.010
   H    72.000  21.870  72.640
   H    73.750  21.910  72.490
   H    74.820  23.820  70.820
   H    73.340  24.790  70.960
   H    75.340  29.500  68.140
   H    75.130  28.380  69.410
   H    73.990  31.000  68.860
   H    72.500  30.740  69.810
   H    73.940  30.060  70.420
   H    72.290  26.340  71.630
   H    70.150  27.130  71.200
   H    70.280  28.590  72.160
   H    69.820  24.920  72.450
   H    68.400  26.050  72.210
   H    68.530  25.280  73.650
   H    68.100  27.720  74.210
   H    69.150  27.340  75.390
   H    69.580  28.710  74.380
   H    74.590  26.130  74.850
   H    73.600  25.020  74.040
   H    73.310  25.310  75.720
   H    71.610  28.660  75.550
   H    72.000  27.250  76.560
   H    73.260  28.260  75.870
   H    73.900  27.770  73.080
   H    72.590  28.840  73.450
   H    72.370  28.270  66.790
   H    73.060  29.820  66.880
   H    70.680  29.630  69.750
   H    70.050  28.310  68.800
   H    69.200  29.820  68.850
   H    72.300  33.690  68.060
   H    74.230  32.920  65.790
   H    74.550  32.630  67.550
   H    76.120  35.740  65.480
   H    75.380  34.390  64.760
   H    76.560  34.110  66.010
   H    74.550  34.770  69.000
   H    76.170  34.320  68.480
   H    75.670  35.910  68.140
   H    70.810  35.600  67.780
   H    71.630  37.020  67.520
   H    70.420  36.730  66.330
   H    72.840  35.600  63.900
   H    71.170  35.790  64.060
   H    72.430  37.070  64.570
   H    72.290  33.530  65.050
   H    70.830  33.870  65.910
   H    70.460  28.420  66.200
   H    69.070  29.240  66.620
   H    69.620  32.080  65.650
   H    68.240  31.050  65.310
   H    69.220  31.700  63.970
   H    72.420  30.870  61.900
   H    72.020  33.860  62.250
   H    70.830  32.810  61.520
   H    71.950  31.080  59.760
   H    72.530  32.050  58.450
   H    70.970  32.430  59.110
   H    72.720  34.560  58.860
   H    73.280  35.160  60.410
   H    71.580  34.920  60.050
   H    76.380  33.780  61.300
   H    76.030  33.720  62.940
   H    74.990  34.570  61.850
   H    76.460  31.270  62.310
   H    76.060  31.020  60.620
   H    75.220  30.190  62.010
   H    73.880  33.000  63.670
   H    74.140  31.280  63.520
   H    68.360  28.720  64.510
   H    68.870  29.790  63.300
   H    71.430  27.230  64.630
   H    69.900  26.490  64.880
   H    70.870  25.840  63.670
   H    72.710  28.670  60.130
   H    73.560  25.770  60.540
   H    74.230  27.210  61.240
   H    76.090  26.230  60.270
   H    76.490  26.080  58.550
   H    75.270  25.060  59.350
   H    75.960  28.250  58.140
   H    74.560  29.020  58.280
   H    75.690  28.810  59.780
   H    71.940  26.320  55.760
   H    71.360  25.280  57.090
   H    70.390  26.570  56.600
   H    72.250  29.320  57.980
   H    71.410  28.970  56.680
   H    73.080  28.600  56.500
   H    71.020  26.240  59.340
   H    70.750  27.970  59.050
   H    68.610  26.640  61.670
   H    68.260  26.240  63.270
   H    67.790  27.840  62.570
  