239
PTMA_CHAIN8_time8
 C    58.120  39.810  49.020
   C    57.840  39.260  50.450
   C    56.460  39.760  50.830
   C    58.860  39.820  51.490
   O    58.490  40.410  52.510
   O    60.130  39.440  51.250
   C    61.200  40.040  52.020
   C    61.920  39.030  52.870
   C    62.990  39.570  53.710
   C    62.410  39.920  55.100
   C    64.000  38.520  53.980
   N    63.640  40.730  53.070
   H    64.270  41.360  53.700
   C    63.570  41.090  51.600
   C    63.720  42.590  51.430
   C    64.850  40.460  50.970
   C    62.250  40.580  50.980
   C    57.820  37.700  50.250
   C    57.330  36.710  51.400
   C    57.860  37.090  52.860
   C    55.780  36.700  51.440
   O    55.120  36.410  52.410
   O    55.230  37.070  50.280
   C    53.810  36.940  50.160
   C    53.140  38.260  50.350
   C    51.690  37.960  50.520
   C    51.270  37.160  51.790
   C    50.890  39.300  50.590
   N    51.220  37.140  49.340
   H    50.140  37.160  49.170
   C    52.090  36.410  48.420
   C    51.690  34.890  48.500
   C    51.760  36.980  47.060
   C    53.560  36.540  48.740
   C    57.850  35.300  50.970
   C    57.170  33.890  51.310
   C    58.420  33.000  50.890
   C    56.010  33.730  50.250
   O    54.870  34.000  50.530
   O    56.480  33.300  49.090
   C    55.690  32.990  47.930
   C    55.920  31.590  47.490
   C    54.850  31.290  46.430
   C    53.420  31.010  46.920
   C    55.210  30.040  45.670
   N    54.820  32.350  45.440
   H    54.310  32.170  44.490
   C    55.700  33.590  45.490
   C    54.830  34.730  44.980
   C    56.900  33.360  44.520
   C    56.250  33.880  46.850
   C    56.640  33.620  52.780
   C    56.130  32.250  53.390
   C    55.230  31.430  52.420
   C    57.300  31.320  53.920
   O    58.470  31.630  53.750
   O    56.860  30.270  54.490
   C    57.780  29.280  54.960
   C    58.360  29.610  56.320
   C    59.190  28.500  56.900
   C    59.080  28.440  58.490
   C    60.660  28.670  56.510
   N    58.770  27.150  56.340
   H    59.530  26.360  56.320
   C    57.600  26.810  55.540
   C    57.970  25.780  54.410
   C    56.730  25.970  56.470
   C    56.930  28.030  55.030
   C    55.170  32.610  54.600
   C    55.490  33.470  55.910
   C    54.490  32.880  56.920
   C    56.880  33.180  56.400
   O    57.040  32.410  57.280
   O    57.910  33.870  55.850
   C    59.290  33.710  56.180
   C    60.160  34.150  55.020
   C    61.590  33.660  55.230
   C    61.740  32.230  54.720
   C    62.660  34.550  54.650
   N    61.920  33.690  56.690
   H    62.720  33.070  57.090
   C    61.060  34.330  57.750
   C    61.810  35.630  58.180
   C    61.120  33.350  58.930
   C    59.630  34.580  57.320
   C    55.370  35.050  55.800
   C    54.060  35.820  55.740
   C    53.140  35.230  54.710
   C    54.430  37.310  55.470
   O    55.630  37.700  55.380
   O    53.340  38.230  55.590
   C    53.620  39.600  55.470
   C    53.640  40.110  54.120
   C    53.650  41.670  53.860
   C    52.850  41.920  52.580
   C    55.080  42.290  53.780
   N    52.950  42.430  54.960
   O    53.010  43.630  54.990
   C    52.560  41.810  56.300
   C    51.160  42.310  56.750
   C    53.690  42.270  57.310
   C    52.450  40.300  56.130
   C    53.280  35.900  57.070
   H    57.320  39.530  48.330
   H    58.180  40.900  48.980
   H    59.140  39.500  48.770
   H    55.730  39.510  50.060
   H    56.590  40.830  51.020
   H    56.190  39.350  51.810
   H    60.790  40.860  52.590
   H    61.100  38.460  53.300
   H    62.340  38.250  52.240
   H    61.570  40.620  55.060
   H    63.160  40.280  55.810
   H    62.120  39.070  55.700
   H    64.850  38.710  54.630
   H    64.370  38.170  53.010
   H    63.510  37.610  54.300
   H    62.870  43.190  51.750
   H    64.520  42.830  52.140
   H    64.000  42.910  50.430
   H    64.750  40.170  49.920
   H    65.260  39.600  51.490
   H    65.720  41.120  50.940
   H    62.390  39.860  50.180
   H    61.780  41.440  50.490
   H    57.380  37.490  49.280
   H    58.840  37.380  50.030
   H    57.660  36.310  53.590
   H    57.440  37.990  53.310
   H    58.920  37.320  52.750
   H    53.420  36.190  50.850
   H    53.490  38.720  51.270
   H    53.340  39.000  49.580
   H    50.230  37.250  52.090
   H    51.430  36.090  51.600
   H    51.850  37.400  52.670
   H    51.210  39.880  49.720
   H    51.140  39.880  51.480
   H    49.820  39.090  50.660
   H    51.970  34.590  49.510
   H    50.620  34.710  48.450
   H    52.210  34.210  47.820
   H    52.430  36.430  46.400
   H    50.730  36.740  46.770
   H    51.930  37.980  46.680
   H    54.100  37.120  48.000
   H    53.940  35.520  48.720
   H    58.820  35.310  51.450
   H    57.980  35.410  49.890
   H    58.740  33.160  49.860
   H    59.260  33.170  51.560
   H    58.170  31.940  50.950
   H    54.640  33.180  48.150
   H    55.750  30.900  48.320
   H    56.870  31.460  46.970
   H    52.690  30.870  46.130
   H    52.990  31.840  47.490
   H    53.330  30.200  47.640
   H    55.230  29.120  46.250
   H    54.590  29.950  44.780
   H    56.200  30.240  45.260
   H    54.120  35.070  45.730
   H    54.250  34.500  44.090
   H    55.330  35.690  44.820
   H    57.470  34.280  44.420
   H    57.550  32.540  44.830
   H    56.560  33.120  43.510
   H    56.080  34.910  47.170
   H    57.330  33.750  46.720
   H    55.740  34.230  52.820
   H    57.360  34.030  53.480
   H    54.220  31.790  52.240
   H    55.100  30.380  52.670
   H    55.630  31.370  51.410
   H    58.610  29.110  54.280
   H    57.520  29.860  56.970
   H    58.920  30.550  56.380
   H    58.040  28.280  58.740
   H    59.390  29.320  59.060
   H    59.720  27.610  58.790
   H    61.150  29.620  56.730
   H    61.220  27.850  56.960
   H    60.720  28.570  55.430
   H    57.110  25.120  54.410
   H    57.900  26.260  53.440
   H    58.930  25.280  54.550
   H    57.130  24.970  56.600
   H    56.680  26.430  57.460
   H    55.690  25.890  56.160
   H    56.020  28.210  55.610
   H    56.530  27.830  54.040
   H    54.320  33.080  54.100
   H    54.680  31.650  54.760
   H    53.470  33.080  56.610
   H    54.640  33.310  57.920
   H    54.650  31.850  57.230
   H    59.480  32.670  56.430
   H    60.140  35.230  54.820
   H    59.900  33.820  54.010
   H    62.660  31.670  54.890
   H    61.610  32.250  53.640
   H    60.870  31.650  55.010
   H    62.720  35.490  55.200
   H    62.310  34.800  53.650
   H    63.680  34.170  54.600
   H    61.900  36.180  57.250
   H    62.730  35.390  58.710
   H    61.200  36.260  58.830
   H    62.100  33.040  59.300
   H    60.690  32.390  58.650
   H    60.690  33.680  59.870
   H    59.810  35.600  56.980
   H    58.990  34.640  58.210
   H    55.900  35.580  56.590
   H    55.930  35.270  54.890
   H    52.780  34.220  54.950
   H    52.260  35.870  54.630
   H    53.510  35.180  53.680
   H    54.550  39.770  56.020
   H    52.740  39.700  53.650
   H    54.530  39.720  53.620
   H    52.850  43.000  52.390
   H    51.830  41.570  52.630
   H    53.370  41.470  51.730
   H    55.650  41.830  52.970
   H    55.150  43.350  53.520
   H    55.540  42.240  54.760
   H    50.400  42.050  56.010
   H    50.860  41.990  57.750
   H    51.260  43.380  56.900
   H    53.420  41.760  58.230
   H    53.700  43.340  57.520
   H    54.650  41.970  56.890
   H    51.530  40.060  55.600
   H    52.260  39.850  57.100
   H    53.180  34.980  57.660
   H    53.850  36.560  57.730
   H    52.260  36.240  56.940
  