239
PTMA_CHAIN7_time4
 C    0.160  12.490  8.220
   C    -1.400  12.410  8.290
   C    -1.910  13.050  9.620
   C    -1.770  10.900  8.300
   O    -2.580  10.440  7.480
   O    -1.120  10.200  9.210
   C    -1.340  8.830  9.390
   C    -0.660  8.020  8.280
   C    -0.930  6.570  8.460
   C    -2.420  6.310  8.010
   C    -0.050  5.830  7.520
   N    -0.730  6.140  9.820
   H    -0.560  5.070  9.940
   C    -0.840  7.030  11.030
   C    -2.300  6.670  11.480
   C    0.180  6.540  12.080
   C    -0.640  8.440  10.700
   C    -2.140  13.120  7.110
   C    -1.530  14.460  6.430
   C    -1.310  15.570  7.550
   C    -0.240  14.130  5.590
   O    0.770  14.840  5.690
   O    -0.260  12.990  4.930
   C    0.950  12.580  4.230
   C    1.970  11.890  5.080
   C    3.260  11.670  4.320
   C    4.050  13.040  4.440
   C    4.110  10.580  5.050
   N    3.110  11.300  2.810
   O    4.100  11.000  2.150
   C    1.830  11.530  2.080
   C    2.050  12.590  1.010
   C    1.610  10.180  1.350
   C    0.530  11.790  2.950
   C    -2.690  14.930  5.450
   C    -2.490  15.960  4.270
   C    -3.960  16.370  4.000
   C    -1.890  15.290  3.010
   O    -0.660  15.420  2.720
   O    -2.780  14.570  2.230
   C    -2.440  14.200  0.910
   C    -2.530  15.370  0.000
   C    -2.250  15.020  -1.440
   C    -0.800  15.310  -1.950
   C    -3.200  15.810  -2.370
   N    -2.500  13.550  -1.700
   H    -2.010  13.070  -2.560
   C    -3.040  12.550  -0.730
   C    -1.910  11.510  -0.580
   C    -4.260  11.870  -1.360
   C    -3.340  13.160  0.570
   C    -1.630  17.310  4.640
   C    -1.590  18.630  3.890
   C    -1.420  18.430  2.380
   C    -2.810  19.640  4.030
   O    -3.770  19.370  4.760
   O    -2.700  20.920  3.410
   C    -3.760  21.820  3.680
   C    -3.470  23.350  3.590
   C    -4.700  24.270  3.850
   C    -4.760  25.520  2.900
   C    -4.610  24.720  5.320
   N    -6.010  23.570  3.830
   O    -7.020  24.230  4.040
   C    -6.170  22.160  3.460
   C    -6.720  21.520  4.750
   C    -7.290  22.050  2.350
   C    -4.950  21.420  2.790
   C    -0.260  19.420  4.350
   C    0.190  20.000  5.730
   C    1.140  21.140  5.330
   C    -1.060  20.550  6.500
   O    -1.250  21.760  6.550
   O    -1.670  19.580  7.260
   C    -2.830  19.970  8.010
   C    -3.610  18.690  8.370
   C    -4.890  18.890  9.090
   C    -6.050  18.560  8.100
   C    -5.000  18.140  10.500
   N    -5.130  20.280  9.460
   H    -6.160  20.590  9.640
   C    -4.050  21.210  9.740
   C    -4.150  21.530  11.240
   C    -4.510  22.510  9.030
   C    -2.710  20.750  9.220
   C    1.190  18.940  6.470
   C    2.100  19.330  7.720
   C    3.430  20.010  7.220
   C    2.360  18.020  8.450
   O    1.470  17.590  9.180
   O    3.500  17.430  8.200
   C    3.890  16.290  8.980
   C    4.750  15.510  8.070
   C    5.270  14.200  8.740
   C    6.490  13.650  7.890
   C    4.220  13.150  8.660
   N    5.740  14.430  10.080
   O    6.540  13.630  10.500
   C    5.450  15.710  10.860
   C    6.720  16.140  11.620
   C    4.450  15.130  11.870
   C    4.830  16.830  10.050
   C    1.380  20.280  8.730
   H    0.520  11.960  7.340
   H    0.680  13.440  8.140
   H    0.580  12.100  9.140
   H    -1.550  12.500  10.490
   H    -2.980  13.220  9.740
   H    -1.410  14.020  9.660
   H    -2.430  8.820  9.360
   H    -1.020  8.230  7.270
   H    0.430  8.130  8.310
   H    -2.840  5.380  8.400
   H    -2.740  6.210  6.970
   H    -3.100  7.130  8.240
   H    -0.170  6.220  6.510
   H    -0.330  4.780  7.610
   H    1.000  5.920  7.830
   H    -3.080  6.970  10.780
   H    -2.300  5.590  11.630
   H    -2.590  7.120  12.430
   H    -0.040  5.480  12.200
   H    0.000  7.030  13.040
   H    1.210  6.660  11.760
   H    0.410  8.740  10.720
   H    -1.060  9.060  11.500
   H    -2.210  12.460  6.250
   H    -3.130  13.280  7.530
   H    -0.270  15.530  7.880
   H    -2.060  15.440  8.330
   H    -1.500  16.630  7.370
   H    1.330  13.480  3.740
   H    2.150  12.430  6.010
   H    1.600  10.930  5.450
   H    3.990  13.420  5.470
   H    5.050  12.860  4.040
   H    3.480  13.700  3.790
   H    4.270  10.840  6.090
   H    5.050  10.540  4.490
   H    3.570  9.630  5.100
   H    2.940  12.360  0.420
   H    1.250  12.690  0.270
   H    2.220  13.570  1.460
   H    2.470  9.840  0.760
   H    1.460  9.340  2.030
   H    0.680  10.190  0.790
   H    0.040  10.910  3.350
   H    -0.160  12.430  2.400
   H    -3.530  15.250  6.070
   H    -3.040  13.970  5.070
   H    -4.570  15.500  3.780
   H    -4.310  16.920  4.870
   H    -4.080  17.030  3.130
   H    -1.400  13.900  0.780
   H    -1.860  16.190  0.270
   H    -3.460  15.910  0.130
   H    -0.080  14.690  -1.390
   H    -0.550  16.370  -1.870
   H    -0.580  15.120  -3.000
   H    -3.290  15.370  -3.370
   H    -4.200  16.000  -1.980
   H    -2.660  16.740  -2.560
   H    -2.160  10.780  0.190
   H    -0.930  11.930  -0.360
   H    -1.720  10.930  -1.480
   H    -4.680  11.350  -0.510
   H    -5.080  12.550  -1.580
   H    -4.190  11.220  -2.230
   H    -3.420  12.460  1.390
   H    -4.360  13.540  0.490
   H    -0.590  16.990  4.720
   H    -1.950  17.600  5.640
   H    -0.570  17.760  2.210
   H    -1.180  19.400  1.940
   H    -2.350  18.200  1.880
   H    -4.020  21.650  4.720
   H    -3.180  23.380  2.540
   H    -2.490  23.580  3.990
   H    -3.940  26.180  3.160
   H    -5.670  26.080  3.140
   H    -4.810  25.240  1.850
   H    -3.560  24.920  5.530
   H    -5.170  25.600  5.660
   H    -4.930  23.910  5.970
   H    -5.990  21.500  5.560
   H    -7.600  22.070  5.090
   H    -7.200  20.550  4.610
   H    -7.080  22.600  1.440
   H    -7.410  20.990  2.100
   H    -8.300  22.400  2.560
   H    -4.780  21.780  1.780
   H    -5.180  20.360  2.690
   H    0.540  18.830  3.900
   H    -0.380  20.300  3.730
   H    0.610  21.830  4.680
   H    2.020  20.780  4.800
   H    1.450  21.720  6.210
   H    -3.450  20.550  7.330
   H    -2.960  18.100  9.020
   H    -3.720  18.060  7.490
   H    -5.860  17.510  7.860
   H    -5.960  19.070  7.140
   H    -7.040  18.700  8.510
   H    -4.440  18.600  11.320
   H    -4.900  17.050  10.490
   H    -6.010  18.280  10.880
   H    -5.150  21.280  11.620
   H    -3.910  22.530  11.600
   H    -3.530  20.790  11.740
   H    -4.520  22.510  7.940
   H    -3.840  23.290  9.400
   H    -5.540  22.770  9.240
   H    -2.200  20.110  9.940
   H    -2.100  21.570  8.850
   H    0.540  18.130  6.780
   H    1.860  18.450  5.750
   H    3.810  19.520  6.320
   H    3.400  21.100  7.120
   H    4.220  19.870  7.970
   H    3.080  15.670  9.360
   H    5.490  16.180  7.630
   H    4.240  15.180  7.170
   H    6.240  13.540  6.830
   H    6.870  12.680  8.200
   H    7.350  14.310  8.040
   H    4.170  12.600  7.720
   H    4.350  12.350  9.390
   H    3.180  13.380  8.890
   H    7.180  15.260  12.080
   H    7.530  16.420  10.950
   H    6.510  16.950  12.320
   H    4.960  14.490  12.580
   H    3.720  14.550  11.300
   H    3.940  15.940  12.400
   H    5.680  17.380  9.660
   H    4.370  17.590  10.680
   H    0.420  19.900  9.080
   H    1.860  20.440  9.700
   H    1.050  21.250  8.350
  