239
PTMA_CHAIN7_time5
 C    101.470  12.550  15.740
   C    100.060  13.020  15.340
   C    99.370  13.540  16.630
   C    99.310  11.770  14.830
   O    99.940  10.810  14.340
   O    98.000  11.770  14.970
   C    97.250  10.670  14.530
   C    95.850  10.820  15.090
   C    95.020  9.600  14.670
   C    95.290  8.300  15.480
   C    93.540  9.870  14.750
   N    95.250  9.330  13.210
   H    94.370  9.260  12.570
   C    96.510  9.370  12.510
   C    97.330  8.090  12.750
   C    96.280  9.480  10.950
   C    97.170  10.580  13.010
   C    100.080  14.130  14.230
   C    100.940  15.500  14.230
   C    100.690  16.200  15.600
   C    102.490  15.330  14.090
   O    103.270  16.080  14.680
   O    102.750  14.180  13.510
   C    104.040  13.700  13.150
   C    104.740  13.210  14.430
   C    105.870  12.240  14.250
   C    107.160  12.570  15.130
   C    105.390  10.780  14.690
   N    106.310  12.100  12.800
   O    107.480  11.750  12.570
   C    105.330  12.140  11.650
   C    105.820  13.180  10.630
   C    105.200  10.770  10.870
   C    103.910  12.510  12.190
   C    100.310  16.530  13.180
   C    101.100  17.430  12.130
   C    100.040  18.080  11.310
   C    101.910  16.530  11.170
   O    103.130  16.470  11.340
   O    101.140  15.790  10.380
   C    101.750  15.190  9.240
   C    102.040  16.090  8.100
   C    102.360  15.330  6.820
   C    103.730  15.690  6.410
   C    101.390  15.730  5.720
   N    102.220  13.860  7.020
   H    102.950  13.180  6.580
   C    101.200  13.230  7.890
   C    101.800  12.060  8.630
   C    100.150  12.570  7.030
   C    100.640  14.260  8.770
   C    101.910  18.580  12.850
   C    102.580  19.820  12.100
   C    103.310  19.470  10.810
   C    101.570  20.930  11.690
   O    101.480  21.970  12.330
   O    100.860  20.750  10.610
   C    99.720  21.550  10.350
   C    100.110  22.690  9.570
   C    98.870  23.570  9.260
   C    99.230  24.530  8.080
   C    98.370  24.340  10.540
   N    97.720  22.790  8.730
   O    96.760  23.430  8.210
   C    97.520  21.380  9.150
   C    96.580  21.400  10.370
   C    96.830  20.520  8.090
   C    98.850  20.650  9.520
   C    103.630  20.320  13.130
   C    103.470  20.720  14.670
   C    104.710  21.520  14.940
   C    102.290  21.520  15.100
   O    102.470  22.710  15.350
   O    101.130  20.820  15.140
   C    99.920  21.390  15.680
   C    99.200  22.160  14.610
   C    97.940  22.840  15.080
   C    98.150  24.340  15.120
   C    96.750  22.540  14.120
   N    97.550  22.410  16.420
   H    97.500  23.180  17.190
   C    97.810  20.970  16.840
   C    96.490  20.150  16.630
   C    97.970  20.950  18.360
   C    99.000  20.310  16.110
   C    103.540  19.430  15.550
   C    103.870  19.470  17.120
   C    105.360  19.650  17.420
   C    103.410  18.090  17.710
   O    102.210  17.820  17.920
   O    104.370  17.280  17.880
   C    104.150  16.240  18.800
   C    104.340  14.910  18.090
   C    104.280  13.760  19.110
   C    105.190  12.730  18.590
   C    102.800  13.250  19.150
   N    104.700  14.070  20.530
   O    104.460  13.330  21.490
   C    105.440  15.370  20.900
   C    106.870  14.940  21.270
   C    104.860  16.060  22.150
   C    105.400  16.340  19.710
   C    103.140  20.470  18.010
   H    102.040  13.380  16.170
   H    101.300  11.820  16.520
   H    102.010  12.030  14.950
   H    99.110  12.730  17.320
   H    98.470  14.080  16.350
   H    99.950  14.310  17.130
   H    97.710  9.790  14.980
   H    95.800  10.880  16.180
   H    95.370  11.730  14.730
   H    94.680  7.490  15.060
   H    94.950  8.440  16.510
   H    96.330  7.970  15.460
   H    93.270  10.590  13.970
   H    93.360  10.420  15.670
   H    92.980  8.940  14.760
   H    96.780  7.150  12.750
   H    98.030  7.860  11.940
   H    97.870  8.130  13.700
   H    97.180  9.650  10.360
   H    95.640  10.330  10.750
   H    95.810  8.600  10.500
   H    96.620  11.440  12.650
   H    98.150  10.650  12.540
   H    100.410  13.680  13.290
   H    99.040  14.320  13.960
   H    100.990  17.250  15.500
   H    101.330  15.900  16.430
   H    99.650  16.300  15.890
   H    104.530  14.530  12.640
   H    105.160  14.070  14.950
   H    103.960  12.930  15.130
   H    106.960  12.730  16.190
   H    107.750  11.660  15.210
   H    107.810  13.370  14.790
   H    105.050  10.880  15.720
   H    106.090  9.950  14.650
   H    104.430  10.490  14.270
   H    105.950  14.200  11.000
   H    106.780  12.880  10.220
   H    105.180  13.240  9.750
   H    104.400  10.620  10.140
   H    106.070  10.330  10.390
   H    104.800  10.040  11.570
   H    103.390  11.680  12.660
   H    103.260  12.740  11.340
   H    99.590  17.140  13.740
   H    99.740  15.820  12.580
   H    99.270  17.410  10.930
   H    99.520  18.850  11.880
   H    100.400  18.470  10.360
   H    102.600  14.650  9.650
   H    102.850  16.770  8.360
   H    101.150  16.720  8.000
   H    103.880  16.690  6.000
   H    103.980  15.070  5.550
   H    104.430  15.400  7.190
   H    101.620  15.390  4.710
   H    100.470  15.190  5.910
   H    101.020  16.750  5.770
   H    101.110  11.710  9.390
   H    102.730  12.330  9.130
   H    101.980  11.180  8.000
   H    100.470  11.730  6.420
   H    99.330  12.150  7.620
   H    99.690  13.230  6.280
   H    100.170  13.810  9.640
   H    99.880  14.820  8.230
   H    102.760  18.060  13.280
   H    101.360  18.960  13.700
   H    104.050  18.680  10.910
   H    103.880  20.330  10.450
   H    102.660  19.170  9.990
   H    99.270  21.870  11.290
   H    100.470  22.360  8.590
   H    100.910  23.260  10.040
   H    100.280  24.820  8.070
   H    98.610  25.430  8.010
   H    99.080  23.970  7.160
   H    97.860  23.750  11.300
   H    99.240  24.810  11.000
   H    97.630  25.090  10.260
   H    96.190  20.410  10.590
   H    97.000  21.760  11.310
   H    95.690  21.960  10.080
   H    96.760  19.510  8.510
   H    95.820  20.860  7.900
   H    97.310  20.570  7.120
   H    99.340  20.330  8.600
   H    98.600  19.740  10.050
   H    104.480  19.640  13.030
   H    103.960  21.290  12.740
   H    105.640  21.040  14.640
   H    104.820  21.770  16.000
   H    104.810  22.420  14.330
   H    100.180  21.950  16.580
   H    99.040  21.520  13.740
   H    99.930  22.880  14.240
   H    98.350  24.820  14.160
   H    99.010  24.580  15.740
   H    97.230  24.820  15.440
   H    95.810  23.000  14.440
   H    96.560  21.470  14.000
   H    96.950  22.910  13.110
   H    95.670  20.480  17.270
   H    96.590  19.140  17.010
   H    96.170  20.100  15.590
   H    98.860  21.540  18.560
   H    98.020  19.970  18.830
   H    97.100  21.410  18.820
   H    98.800  19.750  15.200
   H    99.530  19.620  16.770
   H    102.560  18.960  15.530
   H    104.300  18.770  15.130
   H    105.650  20.700  17.510
   H    105.610  19.140  18.350
   H    106.030  19.210  16.670
   H    103.180  16.250  19.320
   H    105.340  14.970  17.650
   H    103.640  14.850  17.250
   H    106.200  13.050  18.340
   H    104.770  12.120  17.790
   H    105.500  12.060  19.390
   H    102.490  12.930  18.160
   H    102.780  12.310  19.710
   H    102.100  13.960  19.590
   H    107.160  14.050  20.710
   H    107.550  15.730  20.940
   H    106.990  14.740  22.330
   H    105.050  15.510  23.070
   H    103.790  16.240  22.030
   H    105.250  17.070  22.300
   H    106.280  16.230  19.070
   H    105.540  17.350  20.100
   H    103.510  21.500  17.940
   H    102.070  20.430  17.850
   H    103.420  20.260  19.050
  