239
PTMA_CHAIN4_time0point005
 C    104.520  96.690  19.920
   C    104.070  95.250  20.180
   C    102.750  95.130  19.410
   C    103.720  95.270  21.690
   O    102.570  95.290  22.160
   O    104.850  95.430  22.440
   C    104.700  95.970  23.780
   C    104.420  94.860  24.820
   C    104.150  95.390  26.210
   C    102.640  95.750  26.320
   C    104.440  94.230  27.180
   N    104.920  96.640  26.560
   O    104.980  96.950  27.760
   C    106.200  96.810  25.790
   C    106.820  98.200  25.930
   C    107.290  95.760  26.220
   C    106.000  96.610  24.220
   C    105.220  94.250  19.780
   C    104.920  92.740  19.520
   C    104.150  92.150  20.710
   C    104.160  92.650  18.190
   O    103.140  91.940  18.080
   O    104.700  93.330  17.160
   C    104.260  93.170  15.810
   C    103.430  94.390  15.360
   C    104.230  95.370  14.480
   C    103.170  96.460  14.090
   C    105.200  96.100  15.370
   N    104.950  94.760  13.300
   O    104.510  95.090  12.170
   C    105.340  93.300  13.480
   C    104.300  92.320  12.840
   C    106.660  93.060  12.780
   C    105.480  92.920  14.980
   C    106.350  92.080  19.230
   C    106.640  90.530  19.360
   C    106.960  90.200  20.810
   C    107.930  90.450  18.490
   O    107.880  90.620  17.260
   O    109.120  90.360  19.160
   C    110.300  90.590  18.410
   C    110.740  89.350  17.620
   C    112.000  89.530  16.790
   C    111.690  90.460  15.550
   C    112.410  88.180  16.190
   N    113.170  90.080  17.600
   O    114.200  90.330  16.980
   C    112.790  91.090  18.660
   C    112.840  92.570  18.130
   C    113.880  91.100  19.750
   C    111.510  90.880  19.410
   C    105.530  89.580  18.780
   C    105.680  88.150  18.170
   C    106.670  88.110  16.990
   C    106.230  86.970  19.030
   O    105.970  85.770  18.770
   O    107.190  87.320  20.000
   C    107.940  86.280  20.540
   C    109.360  86.790  20.880
   C    109.780  86.710  22.330
   C    109.090  87.940  23.130
   C    111.300  87.040  22.380
   N    109.480  85.390  23.060
   O    110.460  84.660  23.360
   C    108.190  84.710  22.510
   C    108.590  83.490  21.580
   C    107.390  84.200  23.730
   C    107.260  85.630  21.710
   C    104.340  87.650  17.520
   C    102.950  87.430  18.310
   C    102.190  86.300  17.570
   C    103.110  86.820  19.700
   O    103.300  85.610  19.930
   O    102.970  87.660  20.710
   C    102.450  87.130  21.940
   C    103.480  86.670  22.940
   C    102.790  85.940  24.100
   C    102.660  84.430  23.750
   C    103.770  86.030  25.370
   N    101.380  86.460  24.430
   O    100.920  86.060  25.580
   C    101.090  87.840  24.080
   C    101.880  88.870  24.950
   C    99.640  88.200  24.220
   C    101.510  88.240  22.590
   C    102.020  88.700  18.370
   C    101.110  89.210  17.230
   C    101.910  89.480  15.940
   C    100.380  90.510  17.680
   O    99.910  90.640  18.830
   O    100.090  91.360  16.660
   C    99.080  92.350  16.840
   C    99.520  93.630  16.080
   C    98.400  94.710  16.060
   C    98.730  95.670  14.860
   C    98.460  95.520  17.350
   N    96.960  94.150  15.870
   O    96.120  94.970  15.380
   C    96.800  92.720  15.470
   C    97.300  92.530  13.950
   C    95.420  92.230  15.590
   C    97.720  91.810  16.400
   C    99.960  88.340  16.940
   H    104.730  96.820  18.860
   H    103.740  97.340  20.310
   H    105.440  97.060  20.390
   H    102.970  95.270  18.350
   H    102.020  95.920  19.560
   H    102.270  94.170  19.620
   H    103.920  96.720  23.690
   H    103.570  94.300  24.410
   H    105.280  94.190  24.820
   H    102.340  96.530  25.610
   H    102.280  96.000  27.320
   H    102.100  94.840  26.070
   H    103.930  93.300  26.920
   H    104.020  94.600  28.110
   H    105.510  94.050  27.330
   H    107.150  98.140  26.970
   H    107.690  98.410  25.320
   H    106.060  98.970  25.790
   H    107.050  94.790  25.800
   H    107.400  95.620  27.290
   H    108.240  96.100  25.790
   H    106.880  96.020  23.960
   H    106.040  97.540  23.640
   H    105.770  94.650  18.920
   H    105.980  94.430  20.530
   H    103.850  91.100  20.680
   H    103.190  92.610  20.920
   H    104.740  92.200  21.630
   H    103.650  92.270  15.720
   H    102.660  93.980  14.700
   H    102.830  94.830  16.150
   H    102.380  96.090  13.440
   H    102.660  96.880  14.950
   H    103.680  97.240  13.510
   H    105.750  96.790  14.730
   H    106.090  95.630  15.800
   H    104.710  96.640  16.180
   H    104.690  91.330  13.060
   H    103.320  92.500  13.280
   H    104.190  92.410  11.760
   H    106.630  93.260  11.710
   H    107.380  93.740  13.230
   H    106.970  92.020  12.860
   H    106.350  93.520  15.240
   H    105.680  91.860  15.090
   H    107.180  92.480  19.810
   H    106.700  92.600  18.330
   H    106.010  90.090  21.340
   H    107.650  89.360  20.880
   H    107.560  90.980  21.290
   H    110.210  91.510  17.830
   H    109.880  89.050  17.020
   H    110.910  88.450  18.220
   H    112.500  90.800  14.910
   H    111.460  91.480  15.860
   H    110.850  89.990  15.040
   H    112.610  87.420  16.960
   H    111.550  87.740  15.680
   H    113.310  88.210  15.590
   H    112.680  93.310  18.910
   H    112.050  92.790  17.410
   H    113.720  92.870  17.560
   H    113.930  90.110  20.220
   H    114.850  91.360  19.320
   H    113.540  91.700  20.590
   H    111.070  91.710  19.970
   H    111.530  89.970  20.020
   H    104.940  90.120  18.040
   H    104.880  89.450  19.640
   H    106.450  88.900  16.270
   H    106.600  87.140  16.510
   H    107.730  88.160  17.230
   H    108.110  85.560  19.740
   H    109.560  87.760  20.410
   H    109.960  86.090  20.290
   H    109.290  88.920  22.710
   H    109.340  88.120  24.180
   H    108.010  87.990  23.100
   H    111.630  86.900  23.410
   H    111.870  86.260  21.870
   H    111.460  88.040  21.970
   H    107.660  83.070  21.180
   H    109.240  83.810  20.760
   H    109.140  82.790  22.200
   H    107.180  85.020  24.420
   H    106.420  83.770  23.480
   H    108.030  83.470  24.230
   H    106.740  86.220  22.470
   H    106.430  85.010  21.390
   H    104.090  88.410  16.780
   H    104.610  86.780  16.930
   H    102.150  86.570  16.520
   H    101.170  86.230  17.940
   H    102.680  85.330  17.500
   H    101.900  86.220  21.680
   H    103.940  87.610  23.240
   H    104.140  86.020  22.360
   H    103.630  84.020  23.480
   H    102.070  84.380  22.840
   H    102.240  83.850  24.580
   H    104.760  85.640  25.100
   H    103.550  85.450  26.270
   H    103.820  87.070  25.700
   H    101.750  88.670  26.020
   H    101.680  89.930  24.780
   H    102.950  88.920  24.730
   H    99.150  87.420  23.640
   H    99.470  89.200  23.840
   H    99.130  88.180  25.180
   H    102.120  89.140  22.540
   H    100.580  88.340  22.040
   H    101.330  88.670  19.210
   H    102.680  89.520  18.650
   H    102.370  88.590  15.510
   H    101.380  89.960  15.120
   H    102.630  90.270  16.170
   H    99.030  92.530  17.920
   H    99.850  93.380  15.070
   H    100.420  94.190  16.290
   H    98.680  95.150  13.900
   H    99.740  96.070  14.950
   H    98.140  96.580  14.770
   H    97.750  96.340  17.420
   H    98.270  94.890  18.220
   H    99.420  95.980  17.580
   H    97.170  91.460  13.810
   H    96.650  93.040  13.240
   H    98.330  92.870  13.880
   H    95.290  91.150  15.470
   H    94.670  92.700  14.950
   H    95.080  92.340  16.620
   H    97.730  90.870  15.860
   H    97.090  91.510  17.240
   H    99.570  87.930  17.870
   H    99.050  88.840  16.630
   H    100.250  87.520  16.280
  