239
PTMA_CHAIN6_time14
 C    62.970  46.130  47.230
   C    62.540  46.690  45.860
   C    63.770  47.060  45.000
   C    61.740  47.940  46.170
   O    62.130  49.030  45.800
   O    60.500  47.630  46.550
   C    59.570  48.590  46.990
   C    58.350  48.760  46.130
   C    57.420  49.880  46.760
   C    57.880  51.300  46.290
   C    56.030  49.780  45.980
   N    57.280  49.760  48.210
   H    56.360  50.160  48.630
   C    58.300  49.140  49.060
   C    59.120  50.230  49.720
   C    57.480  48.500  50.130
   C    59.210  48.140  48.370
   C    61.620  45.510  45.190
   C    60.960  45.550  43.740
   C    60.680  47.050  43.320
   C    62.000  45.020  42.620
   O    61.780  45.330  41.450
   O    63.010  44.260  43.040
   C    63.980  43.790  42.160
   C    65.040  44.810  41.960
   C    66.150  44.350  41.050
   C    65.600  44.340  39.620
   C    67.250  45.460  41.240
   N    66.640  42.940  41.360
   O    67.860  42.710  41.190
   C    65.770  41.900  42.060
   C    65.290  40.950  41.010
   C    66.550  41.150  43.090
   C    64.500  42.510  42.770
   C    59.620  44.720  43.630
   C    59.600  43.130  43.790
   C    58.140  42.760  43.970
   C    60.400  42.720  45.040
   O    61.600  42.400  44.940
   O    59.620  42.570  46.150
   C    60.200  41.980  47.270
   C    59.110  41.170  47.940
   C    59.160  41.180  49.470
   C    58.750  39.800  49.910
   C    58.170  42.180  50.160
   N    60.530  41.330  49.900
   H    60.850  41.030  50.890
   C    61.370  42.400  49.440
   C    62.810  41.860  49.200
   C    61.370  43.400  50.620
   C    60.780  43.040  48.200
   C    60.120  42.430  42.470
   C    59.950  40.920  42.150
   C    60.390  40.080  43.360
   C    58.450  40.560  41.830
   O    57.810  39.640  42.460
   O    57.820  41.310  40.920
   C    56.460  41.030  40.510
   C    55.420  41.550  41.580
   C    54.000  41.540  41.130
   C    53.100  42.640  41.810
   C    53.390  40.180  41.460
   N    53.780  41.670  39.620
   O    52.650  41.840  39.180
   C    54.860  41.480  38.570
   C    54.790  40.100  37.860
   C    54.680  42.500  37.440
   C    56.230  41.880  39.210
   C    60.950  40.470  41.030
   C    60.700  39.860  39.620
   C    59.850  38.580  39.670
   C    60.020  40.970  38.700
   O    59.470  40.620  37.670
   O    60.050  42.270  39.160
   C    59.550  43.390  38.380
   C    59.050  44.450  39.340
   C    58.720  45.750  38.550
   C    57.190  46.060  38.580
   C    59.520  46.990  39.150
   N    59.080  45.710  37.110
   H    58.640  46.460  36.450
   C    60.240  44.990  36.610
   C    61.270  46.050  36.180
   C    59.930  44.220  35.350
   C    60.690  43.970  37.570
   C    62.130  39.450  39.030
   C    62.470  39.190  37.520
   C    63.860  38.400  37.390
   C    62.710  40.550  36.780
   O    62.910  41.630  37.340
   O    62.890  40.360  35.440
   C    63.310  41.460  34.570
   C    64.810  41.490  34.410
   C    65.310  42.620  33.440
   C    66.830  42.410  33.210
   C    65.180  43.960  34.220
   N    64.480  42.750  32.170
   O    64.910  43.440  31.250
   C    63.110  42.170  32.070
   C    63.010  41.410  30.770
   C    62.050  43.290  32.100
   C    62.780  41.180  33.230
   C    61.430  38.310  36.740
   H    62.140  45.960  47.920
   H    63.470  45.180  47.060
   H    63.760  46.780  47.630
   H    64.380  47.730  45.600
   H    63.550  47.680  44.130
   H    64.430  46.270  44.630
   H    59.980  49.600  47.080
   H    58.610  49.090  45.130
   H    57.860  47.820  45.870
   H    58.890  51.530  46.620
   H    57.310  52.070  46.820
   H    57.760  51.490  45.230
   H    55.440  50.660  46.230
   H    55.590  48.870  46.410
   H    56.110  49.650  44.900
   H    59.680  49.790  50.550
   H    59.800  50.690  49.000
   H    58.500  51.020  50.150
   H    58.160  47.810  50.630
   H    56.650  47.970  49.660
   H    57.030  49.170  50.860
   H    58.710  47.180  48.200
   H    60.160  48.000  48.900
   H    62.210  44.610  45.370
   H    60.840  45.420  45.940
   H    60.450  47.090  42.250
   H    61.580  47.650  43.470
   H    59.730  47.420  43.710
   H    63.590  43.560  41.170
   H    64.650  45.770  41.620
   H    65.500  44.860  42.950
   H    66.380  44.500  38.870
   H    65.250  43.400  39.210
   H    64.890  45.120  39.340
   H    68.140  45.280  40.620
   H    67.600  45.420  42.270
   H    66.940  46.480  41.060
   H    64.940  40.010  41.430
   H    64.580  41.400  40.320
   H    66.190  40.570  40.530
   H    65.960  40.390  43.610
   H    67.330  40.600  42.570
   H    67.080  41.820  43.760
   H    64.790  42.670  43.800
   H    63.690  41.780  42.730
   H    59.230  45.010  42.660
   H    58.900  45.130  44.340
   H    57.610  43.400  44.680
   H    57.560  42.920  43.060
   H    57.920  41.760  44.340
   H    60.970  41.260  47.010
   H    59.110  40.170  47.530
   H    58.180  41.540  47.510
   H    57.750  39.610  49.520
   H    58.640  39.620  50.980
   H    59.340  39.000  49.460
   H    57.130  41.890  50.030
   H    58.330  42.340  51.230
   H    58.290  43.150  49.680
   H    63.350  42.730  48.860
   H    62.920  41.030  48.500
   H    63.220  41.600  50.180
   H    61.920  43.020  51.480
   H    61.740  44.360  50.270
   H    60.360  43.640  50.960
   H    61.510  43.630  47.640
   H    59.930  43.610  48.560
   H    61.190  42.580  42.320
   H    59.670  43.030  41.680
   H    61.400  40.280  43.710
   H    60.400  39.040  43.030
   H    59.670  40.060  44.180
   H    56.250  39.990  40.240
   H    55.700  42.550  41.910
   H    55.630  41.020  42.500
   H    52.060  42.540  41.510
   H    53.430  43.650  41.560
   H    53.110  42.520  42.900
   H    53.450  40.030  42.540
   H    52.360  40.100  41.120
   H    53.890  39.320  41.030
   H    55.520  40.080  37.060
   H    55.040  39.300  38.560
   H    53.760  39.950  37.540
   H    55.450  42.460  36.670
   H    53.740  42.540  36.900
   H    54.680  43.540  37.760
   H    56.050  42.910  39.530
   H    57.060  41.920  38.500
   H    61.420  41.410  40.740
   H    61.810  39.950  41.440
   H    60.070  38.090  40.610
   H    59.930  37.810  38.900
   H    58.780  38.810  39.620
   H    58.810  43.080  37.650
   H    59.830  44.690  40.060
   H    58.260  44.140  40.020
   H    56.710  45.940  39.550
   H    56.630  45.420  37.900
   H    56.950  47.080  38.300
   H    59.290  47.880  38.550
   H    60.580  46.750  39.220
   H    59.100  47.230  40.130
   H    60.930  46.800  35.480
   H    62.200  45.580  35.840
   H    61.680  46.570  37.050
   H    59.720  44.850  34.480
   H    59.060  43.570  35.420
   H    60.690  43.550  34.950
   H    61.400  44.390  38.290
   H    61.190  43.140  37.060
   H    62.910  40.170  39.290
   H    62.510  38.560  39.530
   H    64.230  38.210  36.380
   H    64.710  38.930  37.810
   H    63.910  37.410  37.840
   H    62.840  42.410  34.820
   H    65.310  40.580  34.070
   H    65.210  41.780  35.380
   H    67.430  42.550  34.110
   H    67.070  43.220  32.520
   H    67.020  41.470  32.690
   H    65.300  43.910  35.300
   H    65.790  44.700  33.710
   H    64.170  44.340  34.070
   H    63.020  42.060  29.900
   H    63.830  40.700  30.810
   H    62.120  40.780  30.840
   H    60.990  43.030  32.220
   H    62.200  43.920  31.230
   H    62.130  43.810  33.050
   H    63.300  40.290  32.900
   H    61.710  40.950  33.260
   H    61.340  37.350  37.250
   H    60.420  38.670  36.560
   H    61.760  38.110  35.720
  