239
PTMA_CHAIN6_time18
 C    65.350  46.100  45.700
   C    64.000  45.970  44.940
   C    64.280  46.520  43.520
   C    63.010  46.860  45.770
   O    62.360  47.770  45.240
   O    62.890  46.350  47.060
   C    61.920  47.030  47.900
   C    60.700  46.110  48.090
   C    59.760  46.610  49.240
   C    58.420  47.220  48.820
   C    59.430  45.460  50.230
   N    60.370  47.570  50.080
   H    59.790  47.750  50.990
   C    61.760  48.080  50.160
   C    61.740  49.570  49.950
   C    62.330  47.850  51.590
   C    62.650  47.200  49.220
   C    63.640  44.480  44.940
   C    62.310  43.780  44.410
   C    61.120  44.540  44.980
   C    62.310  43.940  42.850
   O    61.280  44.190  42.260
   O    63.500  43.540  42.190
   C    63.510  43.580  40.780
   C    63.370  45.020  40.170
   C    63.110  44.970  38.690
   C    61.700  44.520  38.360
   C    63.200  46.390  38.100
   N    64.120  44.110  37.960
   O    64.150  44.060  36.740
   C    64.910  43.020  38.720
   C    64.480  41.620  38.340
   C    66.380  43.250  38.320
   C    64.880  43.200  40.270
   C    62.210  42.270  45.020
   C    62.980  40.970  44.490
   C    62.560  39.940  45.560
   C    64.540  41.260  44.530
   O    65.190  41.370  43.530
   O    64.990  41.470  45.720
   C    66.370  41.680  45.970
   C    66.920  40.380  46.510
   C    68.340  40.580  46.900
   C    69.170  40.020  45.670
   C    68.690  39.700  48.080
   N    68.770  41.930  47.090
   H    69.830  42.110  46.920
   C    67.830  43.000  47.590
   C    68.210  44.320  46.970
   C    67.940  43.160  49.070
   C    66.440  42.740  47.100
   C    62.440  40.560  43.050
   C    62.820  39.160  42.320
   C    64.360  39.030  42.020
   C    62.350  38.050  43.260
   O    63.060  37.300  43.880
   O    60.980  37.950  43.300
   C    60.330  36.850  44.020
   C    60.060  37.310  45.440
   C    59.450  36.070  46.210
   C    59.020  36.620  47.520
   C    60.510  34.980  46.520
   N    58.290  35.410  45.460
   O    57.500  34.640  46.080
   C    58.200  35.430  43.960
   C    58.570  34.100  43.410
   C    56.720  35.670  43.530
   C    58.940  36.580  43.310
   C    62.050  39.000  40.980
   C    62.260  37.920  39.840
   C    62.250  36.570  40.540
   C    61.000  37.970  38.870
   O    60.520  36.970  38.340
   O    60.650  39.290  38.660
   C    59.540  39.560  37.800
   C    58.210  39.540  38.510
   C    57.220  39.370  37.370
   C    57.110  37.940  36.870
   C    55.860  39.710  37.780
   N    57.510  40.200  36.180
   H    57.010  40.050  35.220
   C    58.490  41.300  36.250
   C    57.680  42.560  36.780
   C    58.890  41.530  34.860
   C    59.750  40.910  37.200
   C    63.500  38.140  38.980
   C    63.850  37.470  37.610
   C    65.390  37.720  37.390
   C    63.240  38.280  36.340
   O    62.810  39.470  36.320
   O    63.040  37.500  35.280
   C    62.470  38.050  34.110
   C    63.590  38.670  33.240
   C    63.100  39.220  31.930
   C    64.350  39.650  31.140
   C    62.370  40.570  32.060
   N    62.230  38.290  31.160
   O    62.500  38.020  30.020
   C    61.230  37.340  31.850
   C    61.150  36.020  31.090
   C    59.790  37.920  31.950
   C    61.710  36.990  33.220
   C    63.590  35.900  37.520
   H    65.320  45.590  46.670
   H    66.180  45.720  45.090
   H    65.550  47.110  46.050
   H    65.020  45.970  42.930
   H    64.620  47.550  43.480
   H    63.400  46.400  42.890
   H    61.570  47.970  47.480
   H    60.110  45.970  47.190
   H    61.000  45.130  48.470
   H    57.990  46.590  48.040
   H    58.710  48.150  48.340
   H    57.730  47.290  49.660
   H    59.010  44.570  49.770
   H    58.780  45.730  51.060
   H    60.370  45.110  50.660
   H    61.440  49.890  48.950
   H    61.040  50.040  50.640
   H    62.750  49.970  50.080
   H    63.370  48.170  51.590
   H    62.160  46.800  51.850
   H    61.850  48.470  52.340
   H    62.790  46.240  49.700
   H    63.630  47.640  49.050
   H    64.450  44.030  44.360
   H    63.740  44.070  45.950
   H    60.190  44.170  44.560
   H    61.140  45.570  44.620
   H    61.140  44.490  46.070
   H    62.660  43.050  40.350
   H    62.610  45.640  40.660
   H    64.290  45.580  40.340
   H    61.670  43.430  38.320
   H    60.840  44.830  38.960
   H    61.430  44.760  37.340
   H    63.420  46.350  37.030
   H    64.060  46.860  38.560
   H    62.340  47.020  38.350
   H    64.480  41.340  37.290
   H    65.040  40.850  38.870
   H    63.440  41.380  38.550
   H    66.680  43.090  37.290
   H    66.620  44.290  38.510
   H    67.080  42.700  38.950
   H    65.680  43.770  40.740
   H    65.150  42.200  40.580
   H    61.150  42.020  44.940
   H    62.430  42.310  46.080
   H    62.870  40.190  46.570
   H    61.530  39.580  45.430
   H    63.190  39.070  45.400
   H    66.870  42.070  45.080
   H    66.810  39.570  45.790
   H    66.350  40.050  47.370
   H    69.090  40.650  44.780
   H    68.910  39.000  45.380
   H    70.250  40.050  45.810
   H    68.270  40.090  49.000
   H    68.350  38.670  48.030
   H    69.760  39.630  48.270
   H    68.120  44.360  45.890
   H    69.210  44.690  47.190
   H    67.630  45.120  47.430
   H    67.310  42.410  49.540
   H    68.990  42.980  49.300
   H    67.530  44.100  49.430
   H    66.040  43.630  46.600
   H    65.770  42.510  47.940
   H    62.720  41.400  42.420
   H    61.370  40.580  43.260
   H    65.040  39.130  42.870
   H    64.660  39.730  41.250
   H    64.620  38.010  41.700
   H    60.870  35.910  43.920
   H    59.390  38.160  45.500
   H    61.000  37.660  45.870
   H    58.630  35.810  48.140
   H    58.140  37.260  47.470
   H    59.730  36.990  48.270
   H    60.140  34.180  47.170
   H    60.890  34.530  45.600
   H    61.420  35.430  46.920
   H    59.470  33.640  43.820
   H    57.760  33.390  43.530
   H    58.780  34.130  42.340
   H    56.170  34.740  43.650
   H    56.190  36.550  43.910
   H    56.650  35.910  42.460
   H    58.390  37.520  43.300
   H    59.120  36.310  42.270
   H    60.970  39.050  41.110
   H    62.320  39.970  40.560
   H    61.500  36.380  41.300
   H    63.200  36.470  41.080
   H    62.200  35.690  39.890
   H    59.560  38.760  37.050
   H    58.020  40.520  38.960
   H    58.220  38.810  39.310
   H    56.340  37.770  36.110
   H    56.800  37.380  37.750
   H    58.070  37.510  36.570
   H    55.640  40.740  38.050
   H    55.560  39.020  38.560
   H    55.110  39.560  37.010
   H    57.600  42.640  37.860
   H    56.630  42.570  36.500
   H    58.120  43.540  36.600
   H    59.620  42.330  34.720
   H    58.100  41.800  34.160
   H    59.260  40.530  34.610
   H    59.900  41.690  37.950
   H    60.680  40.830  36.630
   H    63.590  39.230  38.890
   H    64.380  37.740  39.470
   H    65.980  36.980  37.930
   H    65.750  37.740  36.360
   H    65.630  38.720  37.760
   H    61.660  38.740  34.360
   H    64.230  37.850  32.920
   H    64.110  39.490  33.740
   H    64.990  38.780  31.060
   H    64.940  40.430  31.620
   H    64.130  40.090  30.170
   H    61.360  40.380  32.430
   H    62.880  41.220  32.760
   H    62.170  41.070  31.120
   H    62.170  35.700  30.910
   H    60.560  35.260  31.620
   H    60.870  36.130  30.050
   H    59.630  38.710  32.690
   H    59.050  37.170  32.220
   H    59.640  38.340  30.950
   H    62.420  36.190  33.000
   H    60.840  36.580  33.730
   H    62.530  35.670  37.570
   H    64.110  35.510  36.640
   H    64.000  35.490  38.440
  