239
PTMA_CHAIN1_time10
 C    83.400  25.750  55.230
   C    81.920  25.950  55.740
   C    81.270  24.550  55.480
   C    81.340  27.090  54.820
   O    81.960  28.140  54.570
   O    80.110  26.830  54.390
   C    79.500  27.660  53.380
   C    78.630  26.780  52.480
   C    78.100  27.560  51.280
   C    79.030  27.470  49.970
   C    76.740  26.950  50.940
   N    77.960  29.000  51.680
   H    77.560  29.640  50.890
   C    78.030  29.560  53.120
   C    78.970  30.770  53.090
   C    76.630  30.090  53.480
   C    78.530  28.540  54.130
   C    82.110  26.330  57.290
   C    80.870  26.780  58.240
   C    79.890  27.860  57.610
   C    80.000  25.510  58.680
   O    78.800  25.560  58.890
   O    80.760  24.500  58.880
   C    80.280  23.380  59.500
   C    80.540  22.220  58.620
   C    80.300  20.890  59.320
   C    78.910  20.250  59.180
   C    81.320  19.930  58.770
   N    80.530  20.870  60.770
   H    80.760  19.940  61.290
   C    80.610  22.100  61.620
   C    79.130  22.400  62.230
   C    81.670  21.790  62.710
   C    81.080  23.270  60.750
   C    81.490  27.380  59.550
   C    80.720  28.030  60.760
   C    80.400  29.540  60.340
   C    81.570  28.010  61.980
   O    81.690  29.030  62.670
   O    82.080  26.810  62.200
   C    83.170  26.620  63.050
   C    84.470  26.880  62.490
   C    85.500  26.810  63.600
   C    85.670  28.130  64.230
   C    86.830  26.410  63.020
   N    85.220  25.860  64.650
   H    86.070  25.670  65.310
   C    83.970  25.120  64.820
   C    83.420  25.670  66.210
   C    84.380  23.690  65.050
   C    83.040  25.270  63.650
   C    79.340  27.380  61.140
   C    78.530  27.610  62.500
   C    79.330  26.910  63.630
   C    78.310  29.040  62.870
   O    78.370  29.400  64.030
   O    78.000  29.890  61.890
   C    77.650  31.260  62.100
   C    78.830  32.170  61.950
   C    78.490  33.500  62.540
   C    79.660  34.410  62.090
   C    78.500  33.550  64.130
   N    77.190  33.990  61.980
   H    77.070  35.070  61.990
   C    76.130  33.120  61.490
   C    75.020  33.040  62.550
   C    75.530  33.890  60.270
   C    76.620  31.720  61.110
   C    77.190  26.810  62.290
   C    75.870  27.020  63.120
   C    76.190  27.000  64.650
   C    75.190  28.360  62.670
   O    74.820  29.190  63.550
   O    74.780  28.290  61.390
   C    73.840  29.160  60.790
   C    74.190  29.570  59.340
   C    73.000  30.130  58.530
   C    73.210  31.390  57.730
   C    72.430  29.200  57.490
   N    71.910  30.520  59.490
   H    71.380  31.460  59.330
   C    71.400  29.520  60.450
   C    70.110  28.800  59.960
   C    70.920  30.310  61.610
   C    72.460  28.510  60.830
   C    74.720  25.900  62.860
   C    74.990  24.370  62.530
   C    75.800  23.750  63.720
   C    75.600  24.240  61.120
   O    76.670  23.580  61.040
   O    74.840  24.700  60.080
   C    75.140  24.470  58.730
   C    74.260  23.330  58.210
   C    74.680  22.960  56.760
   C    73.650  21.970  56.220
   C    76.000  22.110  56.780
   N    74.870  24.190  55.890
   O    74.660  24.060  54.670
   C    75.130  25.510  56.470
   C    74.460  26.700  55.710
   C    76.590  25.780  56.150
   C    74.850  25.720  57.970
   C    73.640  23.610  62.550
   H    83.990  26.650  55.100
   H    83.860  25.020  55.890
   H    83.400  25.280  54.240
   H    80.210  24.380  55.670
   H    81.740  23.700  55.970
   H    81.480  24.430  54.410
   H    80.250  28.230  52.830
   H    79.250  25.950  52.130
   H    77.800  26.280  52.970
   H    80.080  27.560  50.270
   H    78.880  28.170  49.160
   H    78.950  26.510  49.460
   H    76.060  27.010  51.790
   H    76.760  25.910  50.600
   H    76.320  27.590  50.170
   H    80.030  30.520  53.020
   H    78.660  31.510  52.350
   H    79.020  31.210  54.090
   H    76.360  30.780  52.690
   H    76.520  30.650  54.410
   H    75.890  29.300  53.610
   H    77.750  27.920  54.550
   H    79.020  29.070  54.950
   H    82.750  25.570  57.730
   H    82.790  27.160  57.430
   H    79.010  28.000  58.240
   H    79.410  27.500  56.700
   H    80.370  28.810  57.370
   H    79.220  23.440  59.760
   H    79.950  22.300  57.700
   H    81.550  22.270  58.230
   H    78.800  19.270  59.620
   H    78.120  20.930  59.510
   H    78.750  20.200  58.100
   H    82.330  20.230  59.030
   H    81.340  19.720  57.700
   H    81.190  18.930  59.190
   H    79.240  22.440  63.310
   H    78.810  23.410  61.970
   H    78.440  21.630  61.900
   H    81.380  21.000  63.400
   H    82.690  21.720  62.330
   H    81.660  22.720  63.290
   H    82.080  23.010  60.410
   H    81.130  24.170  61.370
   H    82.380  27.960  59.320
   H    82.080  26.530  59.890
   H    80.190  30.250  61.140
   H    81.310  29.980  59.930
   H    79.600  29.690  59.620
   H    83.090  27.300  63.890
   H    84.560  27.890  62.090
   H    84.750  26.240  61.650
   H    84.720  28.430  64.680
   H    85.850  29.020  63.630
   H    86.400  28.080  65.050
   H    87.550  26.500  63.840
   H    86.920  25.360  62.740
   H    87.170  27.100  62.240
   H    83.380  26.750  66.330
   H    83.900  25.310  67.120
   H    82.460  25.220  66.440
   H    84.770  23.180  64.170
   H    85.150  23.640  65.830
   H    83.510  23.040  65.190
   H    82.020  25.080  63.960
   H    83.200  24.450  62.960
   H    79.650  26.330  61.140
   H    78.640  27.720  60.380
   H    80.170  27.520  63.960
   H    79.700  25.950  63.280
   H    78.730  26.830  64.540
   H    77.230  31.420  63.100
   H    79.150  32.350  60.920
   H    79.570  31.740  62.620
   H    79.560  34.870  61.110
   H    80.640  33.950  62.220
   H    79.650  35.320  62.700
   H    78.680  34.530  64.560
   H    77.580  33.130  64.540
   H    79.290  32.910  64.510
   H    74.200  32.440  62.170
   H    75.480  32.660  63.460
   H    74.710  34.030  62.880
   H    74.600  33.530  59.830
   H    75.520  34.940  60.560
   H    76.210  34.000  59.420
   H    77.050  31.810  60.110
   H    75.670  31.190  61.180
   H    76.880  27.110  61.290
   H    77.510  25.770  62.170
   H    75.270  27.100  65.220
   H    76.690  27.950  64.850
   H    76.800  26.240  65.140
   H    73.740  30.040  61.420
   H    74.420  28.670  58.780
   H    75.090  30.170  59.200
   H    73.420  32.230  58.390
   H    72.390  31.650  57.070
   H    74.080  31.360  57.070
   H    72.310  28.250  58.010
   H    73.090  29.010  56.640
   H    71.510  29.520  57.000
   H    69.660  28.180  60.730
   H    70.350  28.150  59.110
   H    69.420  29.550  59.580
   H    70.550  29.650  62.390
   H    70.120  30.990  61.320
   H    71.740  30.860  62.080
   H    72.300  27.580  60.270
   H    72.230  28.110  61.820
   H    74.220  25.800  63.820
   H    74.000  26.200  62.110
   H    75.990  22.680  63.790
   H    76.740  24.280  63.790
   H    75.250  23.890  64.650
   H    76.210  24.240  58.650
   H    73.230  23.690  58.310
   H    74.300  22.460  58.870
   H    73.860  21.840  55.160
   H    72.650  22.410  56.330
   H    73.750  21.000  56.700
   H    76.860  22.650  57.160
   H    75.880  21.300  57.490
   H    76.430  21.620  55.900
   H    74.650  26.590  54.640
   H    73.390  26.800  55.890
   H    74.900  27.640  56.070
   H    76.920  26.810  56.260
   H    76.760  25.650  55.080
   H    77.240  25.150  56.760
   H    73.820  26.060  58.130
   H    75.470  26.590  58.180
   H    73.740  22.640  62.070
   H    73.350  23.300  63.560
   H    72.820  24.050  61.980
  