239
PTMA_CHAIN1_time10
 C    80.200  20.170  65.280
   C    79.040  20.880  64.560
   C    77.830  19.840  64.380
   C    79.630  21.300  63.170
   O    79.210  20.850  62.130
   O    80.700  22.080  63.300
   C    81.610  22.320  62.170
   C    81.270  23.700  61.580
   C    82.280  24.050  60.560
   C    81.640  23.640  59.160
   C    82.550  25.560  60.570
   N    83.570  23.340  60.550
   H    84.160  23.420  59.640
   C    84.130  22.520  61.650
   C    84.460  21.240  60.950
   C    85.300  23.300  62.240
   C    83.040  22.290  62.720
   C    78.530  22.150  65.370
   C    77.100  22.830  65.090
   C    76.990  23.290  63.620
   C    75.850  21.990  65.520
   O    74.810  22.140  64.860
   O    76.110  21.150  66.500
   C    75.050  20.490  67.110
   C    74.640  19.220  66.460
   C    73.520  18.470  67.170
   C    72.170  18.830  66.640
   C    73.560  16.950  66.710
   N    73.590  18.470  68.680
   O    72.930  17.640  69.280
   C    74.380  19.460  69.430
   C    73.480  20.590  69.980
   C    75.120  18.710  70.570
   C    75.510  20.030  68.530
   C    77.100  24.180  65.960
   C    75.940  24.980  66.580
   C    76.670  26.300  66.970
   C    75.260  24.360  67.870
   O    75.470  23.150  68.110
   O    74.930  25.300  68.820
   C    74.300  25.050  70.040
   C    72.790  25.040  70.160
   C    72.260  24.840  71.600
   C    71.550  23.490  71.750
   C    71.310  25.950  71.910
   N    73.410  24.880  72.520
   H    73.480  24.170  73.340
   C    74.610  25.700  72.390
   C    75.810  25.010  72.980
   C    74.490  26.960  73.230
   C    74.850  26.120  71.010
   C    74.840  25.390  65.480
   C    73.290  25.770  65.650
   C    72.560  24.530  66.240
   C    73.020  26.900  66.640
   O    72.030  26.850  67.370
   O    73.830  27.940  66.570
   C    73.580  29.170  67.370
   C    74.550  29.170  68.500
   C    74.490  30.360  69.420
   C    75.790  30.290  70.240
   C    73.310  30.290  70.400
   N    74.450  31.690  68.670
   O    74.700  32.730  69.270
   C    73.770  31.700  67.300
   C    72.350  32.100  67.650
   C    74.430  32.930  66.550
   C    73.870  30.440  66.520
   C    72.490  26.010  64.290
   C    72.850  27.050  63.220
   C    72.840  28.520  63.800
   C    74.120  26.720  62.490
   O    74.590  25.570  62.400
   O    74.800  27.780  62.170
   C    75.920  27.760  61.190
   C    75.960  29.080  60.540
   C    77.050  29.130  59.440
   C    76.290  28.900  58.100
   C    77.820  30.530  59.360
   N    78.080  28.150  59.690
   H    78.800  27.890  58.910
   C    78.350  27.480  60.990
   C    79.490  28.230  61.450
   C    78.840  26.000  60.760
   C    77.180  27.540  61.970
   C    71.770  27.140  62.080
   C    71.410  25.980  61.070
   C    71.180  24.620  61.740
   C    72.490  25.810  59.920
   O    73.160  26.830  59.550
   O    72.710  24.500  59.500
   C    73.740  24.290  58.510
   C    75.030  23.700  59.020
   C    76.190  23.460  57.990
   C    77.260  22.430  58.550
   C    76.930  24.800  57.740
   N    75.680  22.950  56.730
   O    76.510  22.690  55.870
   C    74.170  22.800  56.370
   C    73.860  21.380  55.880
   C    73.900  23.770  55.240
   C    73.180  23.140  57.580
   C    70.060  26.430  60.310
   H    80.970  20.860  65.620
   H    79.810  19.650  66.160
   H    80.730  19.390  64.730
   H    77.340  19.450  65.270
   H    78.290  18.960  63.940
   H    77.090  20.280  63.710
   H    81.480  21.620  61.350
   H    80.270  23.660  61.160
   H    81.250  24.430  62.390
   H    80.650  24.060  58.980
   H    81.510  22.560  59.070
   H    82.220  23.960  58.300
   H    82.590  25.890  59.530
   H    83.430  25.780  61.180
   H    81.740  26.110  61.060
   H    84.680  20.460  61.680
   H    83.590  20.920  60.380
   H    85.270  21.350  60.230
   H    84.980  24.230  62.710
   H    85.940  23.540  61.390
   H    85.860  22.670  62.930
   H    83.020  23.100  63.450
   H    83.160  21.390  63.320
   H    78.530  21.930  66.440
   H    79.380  22.820  65.220
   H    76.060  23.760  63.310
   H    77.040  22.360  63.060
   H    77.710  24.000  63.220
   H    74.200  21.170  67.250
   H    74.330  19.410  65.430
   H    75.550  18.650  66.260
   H    72.090  18.710  65.560
   H    71.420  18.200  67.110
   H    72.010  19.900  66.710
   H    73.670  16.920  65.630
   H    72.740  16.290  66.990
   H    74.350  16.350  67.180
   H    74.120  21.270  70.540
   H    73.150  21.320  69.240
   H    72.670  20.130  70.550
   H    74.430  18.500  71.380
   H    75.380  17.710  70.220
   H    76.000  19.310  70.830
   H    76.410  19.420  68.420
   H    75.930  20.940  68.960
   H    77.780  24.800  65.370
   H    77.630  23.940  66.880
   H    76.080  26.950  67.620
   H    77.550  26.120  67.580
   H    76.970  26.900  66.110
   H    74.530  24.070  70.450
   H    72.370  24.320  69.460
   H    72.620  26.040  69.760
   H    71.190  23.300  72.760
   H    72.190  22.630  71.570
   H    70.840  23.320  70.940
   H    71.380  26.170  72.970
   H    71.450  26.780  71.210
   H    70.310  25.550  71.720
   H    75.920  23.950  72.730
   H    75.570  25.020  74.040
   H    76.730  25.520  72.700
   H    75.410  27.540  73.190
   H    73.700  27.600  72.850
   H    74.360  26.730  74.290
   H    75.830  26.560  70.850
   H    74.390  27.100  70.830
   H    74.860  24.580  64.750
   H    75.150  26.240  64.870
   H    71.480  24.620  66.160
   H    72.720  24.440  67.310
   H    72.890  23.530  65.960
   H    72.590  29.300  67.820
   H    75.530  29.040  68.040
   H    74.270  28.280  69.070
   H    76.080  29.310  70.610
   H    75.800  30.980  71.080
   H    76.590  30.560  69.550
   H    73.160  29.510  71.150
   H    73.480  31.260  70.870
   H    72.300  30.440  70.020
   H    71.760  31.210  67.890
   H    72.210  32.840  68.430
   H    71.830  32.580  66.820
   H    74.080  33.920  66.840
   H    75.510  32.820  66.670
   H    74.100  32.930  65.510
   H    74.870  30.390  66.100
   H    73.090  30.540  65.770
   H    72.590  25.100  63.700
   H    71.450  26.230  64.540
   H    73.730  28.700  64.410
   H    71.910  28.780  64.300
   H    72.860  29.360  63.100
   H    75.830  27.030  60.380
   H    76.280  29.810  61.280
   H    75.010  29.330  60.050
   H    75.760  27.950  58.120
   H    77.050  28.790  57.320
   H    75.660  29.760  57.880
   H    77.120  31.330  59.110
   H    78.570  30.500  58.580
   H    78.300  30.690  60.330
   H    79.890  27.690  62.310
   H    79.410  29.240  61.830
   H    80.370  28.320  60.810
   H    78.020  25.290  60.880
   H    79.610  25.680  61.460
   H    79.240  25.810  59.770
   H    77.320  28.360  62.670
   H    77.250  26.610  62.530
   H    70.840  27.460  62.570
   H    72.020  28.010  61.470
   H    70.630  24.690  62.670
   H    70.610  24.040  61.010
   H    72.060  24.010  61.960
   H    73.980  25.160  57.900
   H    74.630  22.830  59.540
   H    75.370  24.290  59.880
   H    76.770  21.480  58.740
   H    77.800  22.870  59.390
   H    77.960  22.180  57.750
   H    76.160  25.530  57.470
   H    77.510  25.230  58.560
   H    77.640  24.680  56.930
   H    72.840  21.180  55.560
   H    74.400  21.180  54.950
   H    74.080  20.560  56.570
   H    72.920  23.620  54.780
   H    74.580  23.480  54.440
   H    74.010  24.810  55.550
   H    73.090  22.240  58.190
   H    72.200  23.390  57.170
   H    69.200  26.450  60.970
   H    70.170  27.410  59.830
   H    69.740  25.840  59.450
  