239
PTMA_CHAIN1_time12
 C    78.050  20.710  66.660
   C    76.740  21.380  66.380
   C    75.570  20.330  66.420
   C    76.950  21.850  64.910
   O    76.120  21.540  64.080
   O    78.020  22.690  64.700
   C    78.490  22.730  63.390
   C    78.980  24.180  63.350
   C    79.670  24.530  62.070
   C    78.690  25.470  61.320
   C    80.980  25.310  62.200
   N    79.890  23.340  61.270
   H    79.850  23.360  60.180
   C    80.220  21.980  61.820
   C    79.590  21.100  60.810
   C    81.770  21.750  61.790
   C    79.640  21.820  63.200
   C    76.610  22.620  67.420
   C    75.240  23.320  67.720
   C    74.690  23.800  66.340
   C    74.260  22.380  68.480
   O    73.100  22.410  68.140
   O    74.790  21.650  69.450
   C    73.980  20.820  70.200
   C    73.570  19.550  69.450
   C    72.680  18.700  70.290
   C    71.160  19.130  70.100
   C    72.840  17.170  69.870
   N    73.040  18.660  71.730
   O    72.530  17.810  72.410
   C    73.900  19.630  72.480
   C    73.070  20.540  73.320
   C    74.950  18.960  73.370
   C    74.770  20.420  71.500
   C    75.660  24.510  68.640
   C    74.640  25.390  69.510
   C    75.540  26.630  69.900
   C    74.230  24.660  70.780
   O    73.060  24.340  71.150
   O    75.240  24.650  71.640
   C    75.010  24.200  72.970
   C    74.320  25.260  73.820
   C    73.890  24.600  75.110
   C    72.490  24.080  75.000
   C    73.930  25.610  76.280
   N    74.790  23.520  75.570
   H    74.530  22.790  76.340
   C    76.260  23.540  75.100
   C    76.910  22.160  75.260
   C    77.090  24.380  76.080
   C    76.380  23.990  73.610
   C    73.430  25.860  68.700
   C    72.320  26.990  69.070
   C    72.080  27.070  70.540
   C    73.010  28.390  68.690
   O    73.130  29.320  69.500
   O    73.650  28.380  67.510
   C    74.530  29.400  67.250
   C    75.760  28.940  66.520
   C    76.820  29.980  66.300
   C    77.640  29.490  65.100
   C    77.810  29.960  67.530
   N    76.260  31.400  66.000
   O    77.030  32.330  65.870
   C    74.790  31.650  66.130
   C    74.630  32.560  67.400
   C    74.250  32.380  64.870
   C    73.840  30.440  66.390
   C    70.820  26.640  68.500
   C    70.380  27.020  67.050
   C    70.150  28.580  67.130
   C    71.390  26.580  66.030
   O    71.760  25.400  65.880
   O    71.650  27.640  65.140
   C    72.110  27.360  63.780
   C    71.630  28.520  62.880
   C    71.910  28.160  61.380
   C    70.570  27.410  60.870
   C    72.070  29.330  60.420
   N    72.980  27.200  61.270
   H    72.890  26.460  60.480
   C    74.050  27.020  62.220
   C    75.220  28.020  61.910
   C    74.600  25.590  62.080
   C    73.610  27.170  63.680
   C    68.980  26.430  66.660
   C    68.690  24.890  66.090
   C    69.290  23.770  66.940
   C    68.980  24.810  64.570
   O    69.070  25.830  63.900
   O    68.870  23.590  64.020
   C    68.940  23.450  62.630
   C    70.310  22.940  62.280
   C    70.460  22.570  60.790
   C    71.770  21.740  60.570
   C    70.710  23.850  59.950
   N    69.260  21.770  60.230
   O    69.390  21.300  59.110
   C    67.910  21.950  60.870
   C    67.110  20.580  60.750
   C    67.190  22.900  59.970
   C    67.840  22.420  62.310
   C    67.190  24.780  66.160
   H    78.930  21.350  66.590
   H    78.030  20.340  67.680
   H    78.240  19.830  66.040
   H    74.690  20.770  65.950
   H    75.410  19.920  67.410
   H    75.830  19.530  65.720
   H    77.660  22.610  62.700
   H    78.210  24.920  63.570
   H    79.740  24.240  64.130
   H    79.200  25.780  60.410
   H    78.430  26.290  62.000
   H    77.760  25.000  61.010
   H    81.630  24.840  62.940
   H    80.560  26.220  62.620
   H    81.510  25.390  61.250
   H    80.110  21.030  59.860
   H    79.540  20.060  61.120
   H    78.580  21.480  60.640
   H    81.880  20.660  61.840
   H    82.330  22.190  62.610
   H    82.230  22.140  60.880
   H    80.360  21.910  64.020
   H    79.420  20.760  63.290
   H    77.080  22.320  68.350
   H    77.280  23.400  67.060
   H    75.450  24.390  65.840
   H    73.800  24.420  66.390
   H    74.480  22.900  65.760
   H    73.100  21.400  70.460
   H    73.100  19.860  68.520
   H    74.470  18.980  69.210
   H    70.510  18.360  70.500
   H    71.000  20.040  70.680
   H    70.830  19.310  69.070
   H    73.830  16.830  70.200
   H    72.750  16.970  68.810
   H    72.040  16.530  70.230
   H    73.530  20.870  74.250
   H    72.880  21.510  72.870
   H    72.080  20.160  73.570
   H    75.540  18.260  72.780
   H    75.630  19.640  73.880
   H    74.580  18.380  74.210
   H    75.720  19.960  71.230
   H    75.000  21.360  72.020
   H    76.330  25.100  68.020
   H    76.360  24.130  69.380
   H    75.880  27.240  69.050
   H    74.970  27.260  70.590
   H    76.480  26.310  70.340
   H    74.340  23.340  72.980
   H    73.480  25.660  73.260
   H    75.010  26.060  74.070
   H    72.300  23.350  74.220
   H    71.790  24.870  74.730
   H    72.130  23.680  75.940
   H    74.730  26.360  76.190
   H    73.010  26.190  76.280
   H    74.120  25.190  77.260
   H    77.840  22.200  74.690
   H    76.280  21.450  74.720
   H    77.060  21.760  76.260
   H    78.140  24.230  75.830
   H    76.790  25.420  76.150
   H    76.960  24.050  77.110
   H    76.860  23.170  73.070
   H    77.010  24.870  73.610
   H    72.780  25.010  68.530
   H    73.740  25.980  67.660
   H    72.950  27.140  71.200
   H    71.730  26.100  70.890
   H    71.340  27.830  70.780
   H    74.860  29.900  68.160
   H    75.470  28.650  65.510
   H    76.160  28.050  67.000
   H    78.080  28.540  65.380
   H    78.340  30.300  64.910
   H    77.100  29.290  64.170
   H    78.440  30.850  67.570
   H    77.260  29.830  68.460
   H    78.460  29.080  67.480
   H    75.250  33.450  67.250
   H    73.580  32.800  67.590
   H    75.070  32.170  68.320
   H    74.780  33.310  64.680
   H    74.310  31.660  64.050
   H    73.180  32.550  65.010
   H    73.460  30.010  65.460
   H    73.050  30.770  67.050
   H    70.650  25.570  68.630
   H    70.060  26.970  69.210
   H    69.570  28.920  67.980
   H    69.650  28.960  66.240
   H    71.090  29.140  67.060
   H    71.670  26.420  63.440
   H    72.260  29.400  62.990
   H    70.590  28.690  63.170
   H    70.400  26.430  61.330
   H    70.650  27.290  59.790
   H    69.700  28.060  61.010
   H    72.450  28.940  59.480
   H    72.910  29.990  60.660
   H    71.130  29.850  60.230
   H    75.060  28.940  62.460
   H    75.340  28.340  60.870
   H    76.240  27.730  62.160
   H    75.390  25.380  62.790
   H    75.100  25.450  61.120
   H    73.830  24.840  62.270
   H    74.000  28.090  64.110
   H    73.940  26.360  64.320
   H    68.400  26.690  67.540
   H    68.550  27.140  65.950
   H    68.980  22.800  66.550
   H    70.370  23.670  66.830
   H    68.850  23.850  67.940
   H    68.790  24.330  62.020
   H    70.510  22.020  62.830
   H    71.040  23.730  62.450
   H    72.240  21.770  59.580
   H    71.650  20.680  60.790
   H    72.570  21.980  61.270
   H    71.650  24.300  60.260
   H    70.750  23.730  58.870
   H    69.940  24.560  60.240
   H    66.060  20.660  61.010
   H    67.080  20.090  59.780
   H    67.400  19.770  61.420
   H    66.980  22.450  58.990
   H    67.740  23.830  59.800
   H    66.270  23.240  60.440
   H    68.090  21.550  62.910
   H    66.850  22.820  62.530
   H    66.760  23.850  65.780
   H    66.710  24.840  67.140
   H    66.850  25.640  65.590
  