239
PTMA_CHAIN2_time0point5
 C    89.910  17.490  88.940
   C    88.880  18.630  88.730
   C    89.490  19.710  89.550
   C    87.570  18.140  89.350
   O    86.900  18.690  90.250
   O    87.320  16.880  89.030
   C    86.280  16.090  89.570
   C    85.110  16.340  88.670
   C    83.860  15.430  89.100
   C    82.980  16.210  90.140
   C    83.080  15.260  87.820
   N    84.240  14.090  89.650
   O    83.240  13.420  90.070
   C    85.610  13.800  90.270
   C    85.650  13.990  91.770
   C    85.840  12.230  90.020
   C    86.680  14.690  89.580
   C    88.790  18.870  87.160
   C    88.210  20.150  86.540
   C    86.870  20.430  87.230
   C    89.250  21.300  86.630
   O    88.900  22.450  86.950
   O    90.460  20.980  86.140
   C    91.370  22.050  85.760
   C    92.740  21.650  86.080
   C    93.790  22.690  85.420
   C    93.850  24.010  86.250
   C    95.150  22.030  85.600
   N    93.500  23.120  84.010
   O    94.430  23.190  83.120
   C    92.100  23.090  83.470
   C    91.390  24.440  83.780
   C    92.080  23.020  81.930
   C    91.260  22.020  84.180
   C    87.930  19.910  85.010
   C    87.010  20.960  84.170
   C    85.600  20.280  84.090
   C    87.660  20.820  82.810
   O    88.660  21.520  82.500
   O    87.290  19.650  82.140
   C    87.970  19.330  80.890
   C    87.390  20.150  79.710
   C    88.260  19.950  78.500
   C    89.260  21.050  78.520
   C    87.400  20.010  77.220
   N    89.090  18.670  78.560
   O    90.040  18.570  77.770
   C    88.600  17.470  79.210
   C    89.690  16.500  79.480
   C    87.500  16.760  78.300
   C    87.930  17.850  80.600
   C    86.880  22.510  84.510
   C    86.190  23.720  83.710
   C    87.050  23.940  82.360
   C    84.720  23.430  83.240
   O    83.710  24.020  83.660
   O    84.650  22.340  82.490
   C    83.340  21.910  81.970
   C    83.720  20.910  80.820
   C    82.400  20.590  79.940
   C    82.450  19.110  79.490
   C    82.520  21.520  78.740
   N    81.170  20.800  80.720
   O    80.140  20.650  80.020
   C    81.000  21.050  82.170
   C    80.100  22.230  82.420
   C    80.340  19.850  82.810
   C    82.390  21.210  82.930
   C    86.310  25.080  84.460
   C    85.750  25.480  85.890
   C    85.510  27.000  85.790
   C    84.290  24.950  86.340
   O    83.540  25.720  86.890
   O    84.340  23.660  86.590
   C    83.460  22.870  87.390
   C    83.400  21.530  86.830
   C    82.240  20.690  87.400
   C    80.840  21.200  86.990
   C    82.320  19.260  86.920
   N    82.410  20.700  88.870
   O    81.610  19.920  89.520
   C    83.080  21.760  89.630
   C    84.020  21.150  90.700
   C    81.880  22.640  90.280
   C    83.970  22.740  88.790
   C    86.690  25.090  87.090
   C    87.860  25.940  87.650
   C    88.970  26.030  86.500
   C    88.440  25.220  88.920
   O    87.670  24.510  89.620
   O    89.760  25.300  89.090
   C    90.270  24.810  90.360
   C    90.760  23.400  89.940
   C    91.540  22.780  91.150
   C    92.560  21.710  90.570
   C    90.480  22.070  92.070
   N    92.370  23.680  92.010
   O    93.200  23.160  92.860
   C    92.040  25.100  92.090
   C    93.310  25.960  92.250
   C    91.070  25.480  93.310
   C    91.330  25.650  90.780
   C    87.520  27.360  88.120
   H    90.890  17.860  88.640
   H    90.040  17.210  89.990
   H    89.780  16.610  88.320
   H    90.500  19.930  89.230
   H    89.580  19.450  90.610
   H    88.910  20.620  89.430
   H    86.040  16.530  90.540
   H    84.820  17.380  88.600
   H    85.260  16.310  87.590
   H    83.410  16.430  91.120
   H    82.080  15.640  90.360
   H    82.630  17.180  89.770
   H    82.620  16.180  87.470
   H    82.410  14.470  88.170
   H    83.670  14.800  87.030
   H    84.890  13.350  92.220
   H    86.670  13.860  92.100
   H    85.450  15.050  91.930
   H    86.040  11.920  88.990
   H    85.050  11.650  90.470
   H    86.760  11.790  90.400
   H    86.820  14.240  88.600
   H    87.680  14.530  89.990
   H    89.800  18.700  86.810
   H    88.240  18.000  86.830
   H    86.380  21.360  86.930
   H    86.900  20.490  88.320
   H    86.140  19.630  87.080
   H    91.160  22.970  86.300
   H    92.890  21.730  87.160
   H    92.920  20.670  85.640
   H    92.870  24.480  86.280
   H    93.950  23.900  87.330
   H    94.600  24.670  85.830
   H    95.970  22.730  85.750
   H    95.260  21.280  84.810
   H    95.200  21.480  86.540
   H    90.500  24.610  83.170
   H    91.010  24.490  84.800
   H    92.080  25.260  83.570
   H    92.500  23.930  81.500
   H    92.570  22.100  81.590
   H    91.120  22.890  81.420
   H    91.530  21.060  83.740
   H    90.200  22.160  83.970
   H    87.490  18.920  84.830
   H    88.880  19.810  84.500
   H    84.900  20.840  84.710
   H    85.260  20.250  83.060
   H    85.510  19.220  84.350
   H    88.980  19.650  81.150
   H    87.310  21.200  79.980
   H    86.410  19.690  79.560
   H    90.070  20.930  77.800
   H    89.670  21.280  79.500
   H    88.860  21.980  78.120
   H    86.680  19.200  77.310
   H    86.890  20.980  77.120
   H    88.010  19.850  76.340
   H    89.400  15.610  80.040
   H    90.520  16.940  80.040
   H    90.070  16.130  78.530
   H    86.530  17.260  78.250
   H    87.950  16.570  77.320
   H    87.180  15.780  78.660
   H    88.560  17.420  81.370
   H    86.960  17.350  80.510
   H    87.900  22.800  84.770
   H    86.260  22.610  85.410
   H    88.120  23.940  82.540
   H    86.930  24.970  82.020
   H    86.720  23.300  81.540
   H    82.860  22.810  81.590
   H    84.010  19.960  81.280
   H    84.520  21.250  80.160
   H    83.410  18.840  79.040
   H    81.670  19.040  78.730
   H    82.220  18.330  80.230
   H    83.280  22.300  78.710
   H    82.810  20.980  77.840
   H    81.610  22.110  78.690
   H    79.850  22.450  83.460
   H    80.600  23.070  81.930
   H    79.130  22.180  81.910
   H    81.050  19.040  82.950
   H    79.980  20.010  83.830
   H    79.450  19.540  82.260
   H    82.750  20.240  83.290
   H    82.100  21.720  83.850
   H    87.350  25.420  84.390
   H    85.910  25.850  83.810
   H    86.390  27.480  85.350
   H    85.250  27.490  86.720
   H    84.730  27.280  85.080
   H    82.540  23.450  87.450
   H    84.240  20.860  87.020
   H    83.210  21.380  85.770
   H    80.700  21.740  86.050
   H    80.280  21.730  87.750
   H    80.300  20.300  86.680
   H    82.080  19.070  85.880
   H    81.680  18.570  87.460
   H    83.360  18.930  87.030
   H    83.500  20.730  91.560
   H    84.680  21.910  91.090
   H    84.550  20.330  90.220
   H    81.330  23.130  89.470
   H    82.370  23.360  90.940
   H    81.310  21.890  90.820
   H    85.020  22.450  88.720
   H    83.950  23.700  89.310
   H    86.020  25.000  87.940
   H    87.090  24.090  86.980
   H    88.750  26.660  85.640
   H    89.850  26.460  86.970
   H    89.130  24.990  86.190
   H    89.430  24.740  91.050
   H    91.500  23.510  89.140
   H    90.070  22.690  89.500
   H    93.440  22.280  90.270
   H    92.240  21.260  89.630
   H    92.910  20.920  91.240
   H    90.940  21.200  92.530
   H    90.310  22.790  92.870
   H    89.570  21.720  91.590
   H    93.780  26.330  91.340
   H    93.180  26.900  92.790
   H    94.080  25.360  92.750
   H    91.050  26.570  93.450
   H    91.530  25.080  94.220
   H    90.050  25.130  93.200
   H    92.170  25.650  90.090
   H    91.020  26.660  91.020
   H    86.720  27.410  88.850
   H    88.400  27.740  88.640
   H    87.480  28.150  87.370
  