239
PTMA_CHAIN1_time6
 C    80.720  16.730  63.410
   C    79.640  17.750  63.050
   C    78.410  17.000  63.460
   C    79.750  17.950  61.480
   O    78.970  17.380  60.780
   O    80.800  18.640  61.130
   C    81.160  18.790  59.740
   C    80.370  19.770  58.950
   C    80.640  19.670  57.470
   C    79.880  18.440  56.940
   C    80.220  20.970  56.730
   N    82.080  19.410  57.120
   H    82.500  19.600  56.130
   C    83.080  19.370  58.210
   C    83.990  18.180  58.020
   C    84.080  20.570  57.990
   C    82.540  19.440  59.630
   C    80.100  19.000  63.890
   C    79.210  20.320  64.070
   C    78.620  20.740  62.710
   C    78.030  19.960  65.040
   O    76.950  20.570  64.940
   O    78.270  19.070  65.990
   C    77.300  18.750  66.970
   C    76.290  17.790  66.260
   C    75.180  17.420  67.240
   C    74.090  18.410  67.190
   C    74.640  16.060  66.680
   N    75.640  17.180  68.690
   O    74.810  16.670  69.460
   C    76.990  17.610  69.190
   C    76.840  18.690  70.240
   C    77.630  16.420  69.990
   C    78.000  18.060  68.130
   C    80.220  21.460  64.600
   C    79.890  22.570  65.660
   C    81.050  23.570  65.510
   C    79.940  21.910  67.080
   O    79.800  20.690  67.280
   O    80.280  22.770  67.990
   C    80.610  22.350  69.340
   C    79.880  23.350  70.210
   C    80.290  23.450  71.670
   C    79.180  22.950  72.640
   C    80.530  24.880  72.020
   N    81.520  22.680  71.950
   H    81.850  22.620  72.990
   C    82.460  22.250  70.950
   C    82.620  20.740  71.020
   C    83.780  22.830  71.310
   C    82.050  22.550  69.590
   C    78.520  23.280  65.250
   C    77.440  23.990  66.220
   C    76.940  22.930  67.290
   C    78.010  25.210  66.920
   O    77.420  25.720  67.870
   O    79.050  25.710  66.260
   C    79.640  27.000  66.610
   C    80.520  26.890  67.900
   C    81.020  28.320  68.340
   C    81.920  28.100  69.450
   C    79.850  29.110  68.920
   N    81.690  29.040  67.200
   O    82.560  29.890  67.460
   C    81.110  28.900  65.840
   C    80.040  29.980  65.590
   C    82.250  29.160  64.840
   C    80.620  27.500  65.530
   C    76.210  24.420  65.380
   C    76.120  25.670  64.410
   C    76.430  27.060  65.130
   C    77.090  25.480  63.220
   O    77.220  24.340  62.610
   O    77.580  26.680  62.690
   C    78.490  26.640  61.620
   C    78.600  28.010  61.020
   C    79.550  27.870  59.800
   C    78.730  27.650  58.530
   C    80.390  29.090  59.550
   N    80.490  26.730  59.870
   H    81.050  26.470  58.970
   C    80.680  25.810  60.940
   C    82.160  25.870  61.310
   C    80.320  24.400  60.390
   C    79.870  26.280  62.100
   C    74.600  25.830  63.880
   C    73.850  24.980  62.830
   C    73.930  23.500  63.200
   C    74.370  25.200  61.370
   O    74.970  26.170  61.060
   O    73.860  24.300  60.550
   C    74.610  23.870  59.490
   C    75.220  22.520  59.840
   C    76.140  21.930  58.790
   C    76.240  20.380  58.910
   C    77.560  22.450  58.920
   N    75.740  22.290  57.350
   O    76.290  21.790  56.350
   C    74.730  23.360  56.960
   C    73.870  22.890  55.730
   C    75.580  24.560  56.570
   C    73.780  23.630  58.200
   C    72.300  25.320  62.760
   H    80.540  15.830  62.830
   H    81.730  17.040  63.130
   H    80.680  16.500  64.480
   H    78.340  16.070  62.890
   H    77.520  17.580  63.200
   H    78.300  16.760  64.510
   H    81.260  17.780  59.340
   H    79.360  19.400  59.110
   H    80.260  20.790  59.310
   H    78.830  18.730  57.020
   H    79.950  17.530  57.540
   H    80.050  18.280  55.870
   H    80.530  21.060  55.680
   H    80.460  21.900  57.240
   H    79.150  21.070  56.580
   H    83.340  17.310  58.070
   H    84.550  18.150  57.090
   H    84.720  18.190  58.820
   H    84.640  20.520  57.050
   H    84.750  20.640  58.840
   H    83.490  21.490  57.880
   H    82.410  20.470  59.950
   H    83.290  18.940  60.240
   H    80.520  18.690  64.840
   H    80.980  19.300  63.320
   H    79.400  20.780  61.960
   H    78.220  21.760  62.610
   H    77.780  20.120  62.390
   H    76.810  19.560  67.500
   H    75.940  18.280  65.350
   H    76.770  16.890  65.870
   H    73.240  18.030  67.750
   H    74.420  19.440  67.370
   H    73.820  18.650  66.160
   H    74.390  16.100  65.620
   H    73.820  15.550  67.200
   H    75.390  15.290  66.860
   H    77.680  18.830  70.920
   H    76.740  19.690  69.820
   H    75.890  18.520  70.750
   H    76.920  15.670  70.350
   H    78.180  15.820  69.260
   H    78.350  16.700  70.750
   H    78.450  17.160  67.710
   H    78.760  18.730  68.550
   H    80.500  22.030  63.710
   H    81.130  20.900  64.860
   H    80.930  24.380  66.220
   H    82.000  23.070  65.710
   H    81.130  23.880  64.470
   H    80.190  21.370  69.540
   H    78.820  23.110  70.230
   H    79.910  24.340  69.770
   H    78.880  21.940  72.350
   H    78.310  23.590  72.630
   H    79.540  22.980  73.670
   H    81.340  25.040  72.740
   H    80.720  25.540  71.180
   H    79.620  25.330  72.430
   H    81.680  20.200  70.830
   H    82.950  20.300  71.960
   H    83.330  20.490  70.230
   H    83.640  23.880  71.590
   H    84.080  22.440  72.280
   H    84.530  22.750  70.520
   H    82.750  22.040  68.930
   H    82.270  23.610  69.450
   H    77.910  22.620  64.640
   H    78.810  24.110  64.600
   H    76.770  21.960  66.820
   H    76.010  23.130  67.830
   H    77.750  22.770  68.000
   H    78.820  27.650  66.890
   H    81.470  26.380  67.730
   H    80.020  26.380  68.720
   H    81.600  27.440  70.250
   H    82.040  29.000  70.060
   H    82.870  27.740  69.070
   H    80.210  30.120  69.050
   H    78.980  29.070  68.260
   H    79.540  28.790  69.920
   H    79.600  29.770  64.610
   H    79.190  29.990  66.270
   H    80.470  30.930  65.300
   H    83.040  28.410  64.790
   H    81.820  29.020  63.850
   H    82.720  30.140  64.910
   H    81.390  26.730  65.410
   H    80.060  27.530  64.600
   H    75.900  23.520  64.840
   H    75.390  24.450  66.090
   H    77.490  27.320  65.240
   H    76.050  27.110  66.150
   H    76.060  27.920  64.570
   H    77.960  25.950  60.950
   H    79.000  28.730  61.740
   H    77.630  28.430  60.770
   H    77.940  28.400  58.440
   H    78.340  26.630  58.560
   H    79.240  27.660  57.570
   H    81.110  28.910  58.750
   H    80.980  29.430  60.400
   H    79.810  29.940  59.180
   H    82.890  25.800  60.510
   H    82.350  25.160  62.110
   H    82.370  26.860  61.730
   H    80.740  24.160  59.420
   H    79.260  24.160  60.450
   H    80.610  23.750  61.210
   H    80.400  27.130  62.520
   H    79.950  25.460  62.810
   H    73.940  25.910  64.740
   H    74.480  26.790  63.380
   H    74.920  23.130  62.940
   H    73.540  23.270  64.190
   H    73.210  22.950  62.580
   H    75.430  24.580  59.380
   H    74.410  21.890  60.220
   H    75.770  22.640  60.780
   H    76.780  20.160  59.830
   H    76.800  19.870  58.120
   H    75.260  19.930  59.030
   H    77.630  23.500  59.200
   H    78.070  21.850  59.680
   H    78.160  22.330  58.020
   H    73.300  22.010  56.020
   H    73.070  23.610  55.530
   H    74.430  22.620  54.840
   H    75.140  25.530  56.320
   H    76.050  24.320  55.620
   H    76.350  24.800  57.290
   H    73.110  22.790  58.370
   H    73.080  24.430  57.960
   H    72.250  26.390  62.590
   H    71.720  24.670  62.100
   H    71.870  25.140  63.740
  