239
PTMA_CHAIN1_time4
 C    79.700  15.660  61.660
   C    79.230  17.120  61.400
   C    77.720  17.010  61.340
   C    79.930  17.630  60.050
   O    79.190  17.840  59.030
   O    81.260  17.720  60.100
   C    82.080  17.900  59.030
   C    83.380  18.340  59.610
   C    84.390  18.570  58.440
   C    84.620  20.090  58.240
   C    85.780  17.870  58.810
   N    83.930  17.970  57.090
   H    84.230  18.360  56.120
   C    83.090  16.790  57.000
   C    82.120  17.030  55.850
   C    83.940  15.450  56.800
   C    82.310  16.600  58.340
   C    79.680  18.040  62.620
   C    79.020  19.390  63.020
   C    79.000  20.270  61.740
   C    77.590  19.260  63.560
   O    76.800  20.180  63.510
   O    77.390  18.080  64.210
   C    76.320  17.880  65.090
   C    74.990  17.720  64.400
   C    73.810  18.090  65.390
   C    73.450  19.570  65.200
   C    72.530  17.350  65.030
   N    74.170  17.700  66.840
   O    73.460  18.100  67.770
   C    75.420  16.880  67.190
   C    76.240  17.690  68.260
   C    75.080  15.480  67.720
   C    76.350  16.630  65.970
   C    79.940  20.140  64.050
   C    79.590  21.230  65.180
   C    81.040  21.590  65.620
   C    79.030  20.560  66.490
   O    78.580  19.350  66.480
   O    79.290  21.290  67.580
   C    79.090  20.760  68.910
   C    78.450  21.870  69.750
   C    78.360  21.520  71.230
   C    76.930  21.490  71.860
   C    79.170  22.600  71.990
   N    78.990  20.210  71.480
   H    78.530  19.690  72.320
   C    80.230  19.760  70.840
   C    80.000  18.200  70.580
   C    81.400  19.940  71.900
   C    80.430  20.500  69.530
   C    78.930  22.530  64.570
   C    77.940  23.470  65.320
   C    76.750  22.650  65.960
   C    78.650  24.270  66.420
   O    77.980  24.640  67.390
   O    79.910  24.590  66.110
   C    80.720  25.380  67.040
   C    81.160  24.720  68.340
   C    82.270  25.520  69.120
   C    83.020  24.340  69.880
   C    81.660  26.480  70.140
   N    83.340  26.250  68.260
   O    84.370  26.600  68.810
   C    83.010  26.660  66.940
   C    82.690  28.110  66.820
   C    84.320  26.590  65.980
   C    82.020  25.700  66.250
   C    77.140  24.450  64.420
   C    77.770  25.560  63.510
   C    78.320  26.800  64.280
   C    78.810  24.950  62.620
   O    78.650  24.060  61.790
   O    80.000  25.500  62.830
   C    81.160  25.130  61.980
   C    82.110  26.210  62.290
   C    83.250  26.270  61.300
   C    82.820  26.840  59.910
   C    84.490  27.140  61.760
   N    83.690  24.880  60.940
   H    84.360  24.650  60.100
   C    83.330  23.710  61.790
   C    84.490  23.630  62.810
   C    83.420  22.360  61.030
   C    81.960  23.860  62.460
   C    76.640  26.240  62.620
   C    76.010  25.670  61.350
   C    75.430  24.180  61.540
   C    76.930  25.820  60.130
   O    77.750  26.760  60.060
   O    76.790  24.830  59.240
   C    77.800  24.620  58.350
   C    77.960  23.150  58.290
   C    78.970  22.640  57.320
   C    78.710  21.090  57.140
   C    80.380  22.720  57.910
   N    78.760  23.310  55.990
   O    79.000  22.650  54.940
   C    78.200  24.690  55.850
   C    77.480  24.740  54.420
   C    79.390  25.680  55.740
   C    77.290  25.190  56.990
   C    74.750  26.550  61.030
   H    80.780  15.550  61.750
   H    79.210  15.200  62.520
   H    79.440  15.000  60.830
   H    77.570  16.310  60.520
   H    77.110  17.880  61.100
   H    77.270  16.560  62.220
   H    81.650  18.680  58.410
   H    83.250  19.250  60.190
   H    83.790  17.600  60.300
   H    83.660  20.540  57.990
   H    85.330  20.300  57.440
   H    84.970  20.460  59.200
   H    86.140  18.110  59.810
   H    86.620  18.230  58.220
   H    85.720  16.790  58.680
   H    81.520  17.940  56.000
   H    82.550  17.240  54.870
   H    81.570  16.130  55.580
   H    83.260  14.600  56.710
   H    84.500  15.210  57.710
   H    84.600  15.590  55.950
   H    82.890  16.020  59.060
   H    81.390  16.100  58.030
   H    79.680  17.490  63.560
   H    80.630  18.470  62.300
   H    78.260  19.810  61.070
   H    79.950  20.330  61.220
   H    78.690  21.270  62.030
   H    76.190  18.750  65.730
   H    74.910  18.340  63.510
   H    74.900  16.720  63.970
   H    72.970  19.780  64.240
   H    72.930  19.990  66.060
   H    74.350  20.170  65.350
   H    72.910  16.330  65.000
   H    72.200  17.640  64.040
   H    71.770  17.480  65.800
   H    76.470  18.690  67.910
   H    75.710  17.740  69.220
   H    77.200  17.210  68.460
   H    75.980  14.900  67.910
   H    74.520  15.490  68.660
   H    74.460  14.850  67.080
   H    76.030  15.770  65.380
   H    77.350  16.420  66.360
   H    80.760  20.460  63.420
   H    80.410  19.370  64.650
   H    81.640  22.050  64.830
   H    81.170  22.270  66.460
   H    81.590  20.680  65.890
   H    78.420  19.900  68.950
   H    77.470  22.140  69.350
   H    78.980  22.800  69.590
   H    76.520  22.500  71.810
   H    76.850  21.100  72.870
   H    76.230  20.820  71.360
   H    80.180  22.680  71.560
   H    78.750  23.610  72.000
   H    79.300  22.320  73.030
   H    81.000  17.820  70.350
   H    79.320  17.880  69.790
   H    79.800  17.700  71.530
   H    81.810  20.940  72.020
   H    81.130  19.510  72.860
   H    82.210  19.300  71.550
   H    81.040  19.880  68.880
   H    80.960  21.450  69.650
   H    78.370  22.130  63.720
   H    79.730  23.130  64.150
   H    75.890  23.280  66.170
   H    77.070  22.200  66.900
   H    76.380  21.850  65.320
   H    80.280  26.360  67.250
   H    81.580  23.740  68.110
   H    80.270  24.610  68.950
   H    83.750  24.850  70.520
   H    83.520  23.680  69.170
   H    82.500  23.700  70.590
   H    81.090  27.320  69.740
   H    80.860  25.980  70.690
   H    82.390  26.880  70.840
   H    82.280  28.320  65.830
   H    81.920  28.350  67.550
   H    83.560  28.710  67.080
   H    84.160  26.760  64.910
   H    85.060  27.310  66.320
   H    84.830  25.640  66.080
   H    82.470  24.760  65.930
   H    81.740  26.080  65.260
   H    76.580  23.770  63.770
   H    76.340  24.880  65.020
   H    79.160  26.540  64.930
   H    77.700  27.410  64.940
   H    78.660  27.580  63.600
   H    80.880  25.110  60.920
   H    82.720  26.040  63.180
   H    81.580  27.160  62.360
   H    83.560  26.670  59.130
   H    82.530  27.890  59.850
   H    81.870  26.390  59.610
   H    84.970  26.710  62.640
   H    84.130  28.090  62.160
   H    85.180  27.320  60.930
   H    84.750  24.520  63.390
   H    85.420  23.290  62.340
   H    84.380  22.860  63.580
   H    84.380  22.260  60.530
   H    82.690  22.470  60.230
   H    83.200  21.430  61.550
   H    82.130  23.830  63.540
   H    81.360  22.960  62.300
   H    75.790  26.400  63.280
   H    77.070  27.210  62.340
   H    76.170  23.370  61.600
   H    74.880  24.210  62.470
   H    74.800  23.910  60.690
   H    78.760  25.070  58.600
   H    77.030  22.610  58.100
   H    78.250  22.990  59.330
   H    79.340  20.480  56.500
   H    77.670  20.950  56.840
   H    78.860  20.630  58.120
   H    80.500  23.740  58.250
   H    80.510  22.020  58.730
   H    81.150  22.510  57.170
   H    78.180  24.760  53.580
   H    76.800  23.910  54.200
   H    76.840  25.590  54.190
   H    80.240  25.310  55.170
   H    79.770  25.820  56.750
   H    79.210  26.660  55.270
   H    76.300  24.770  56.800
   H    77.270  26.280  57.060
   H    75.060  27.570  60.770
   H    74.230  26.060  60.200
   H    73.970  26.500  61.790
  