239
PTMA_CHAIN10_time18
 C    71.410  61.760  54.150
   C    70.790  62.790  53.110
   C    70.040  61.990  52.030
   C    72.050  63.480  52.460
   O    72.330  63.280  51.320
   O    72.820  64.150  53.430
   C    73.980  64.870  53.050
   C    74.250  65.770  54.180
   C    75.370  66.690  53.650
   C    74.710  67.620  52.610
   C    75.930  67.430  54.900
   N    76.510  65.960  53.050
   H    77.540  66.330  53.010
   C    76.460  64.550  52.610
   C    76.760  64.550  51.170
   C    77.560  63.860  53.340
   C    75.190  63.900  52.980
   C    69.880  63.880  53.860
   C    69.040  65.030  53.160
   C    69.810  65.910  52.100
   C    67.830  64.340  52.400
   O    67.730  64.290  51.200
   O    66.900  63.790  53.210
   C    65.650  63.310  52.640
   C    65.990  61.890  52.220
   C    64.680  61.340  51.560
   C    64.840  61.600  50.030
   C    64.660  59.820  51.930
   N    63.420  62.010  51.950
   H    62.500  61.800  51.400
   C    63.280  63.000  53.020
   C    62.580  64.290  52.530
   C    62.220  62.330  53.960
   C    64.610  63.140  53.710
   C    68.520  65.870  54.390
   C    67.370  67.020  54.210
   C    65.960  66.500  53.960
   C    67.700  67.970  53.050
   O    68.730  68.620  52.980
   O    66.820  68.030  52.030
   C    67.110  68.730  50.880
   C    66.710  70.190  50.780
   C    67.190  70.760  49.410
   C    68.600  71.300  49.730
   C    66.150  71.810  48.950
   N    67.300  69.720  48.370
   H    67.530  70.050  47.350
   C    66.690  68.390  48.430
   C    67.610  67.320  47.890
   C    65.330  68.500  47.630
   C    66.310  68.020  49.880
   C    67.430  67.780  55.580
   C    66.420  68.940  55.950
   C    66.150  69.880  54.740
   C    64.990  68.460  56.380
   O    64.730  67.240  56.420
   O    64.080  69.480  56.690
   C    62.840  69.080  57.330
   C    62.570  70.020  58.460
   C    61.180  69.810  59.070
   C    60.330  71.070  59.120
   C    61.230  69.440  60.550
   N    60.400  68.810  58.370
   H    59.670  68.280  58.980
   C    60.410  68.610  56.910
   C    60.380  67.110  56.570
   C    59.180  69.370  56.360
   C    61.690  69.200  56.340
   C    66.970  69.850  57.070
   C    67.580  69.280  58.470
   C    66.620  68.220  59.100
   C    69.000  68.750  58.290
   O    69.840  69.350  57.620
   O    69.340  67.850  59.080
   C    70.710  67.360  59.250
   C    70.800  66.610  60.630
   C    72.150  65.960  60.870
   C    72.840  66.760  62.010
   C    71.960  64.530  61.330
   N    72.960  65.950  59.600
   H    74.050  65.990  59.650
   C    72.360  65.820  58.310
   C    72.600  64.360  57.870
   C    73.160  66.750  57.400
   C    70.910  66.250  58.240
   C    67.470  70.400  59.650
   C    68.650  71.370  59.990
   C    68.100  72.490  60.880
   C    69.210  72.070  58.660
   O    70.430  72.430  58.540
   O    68.240  72.520  57.870
   C    68.440  73.530  57.010
   C    68.310  72.890  55.650
   C    68.380  73.860  54.470
   C    67.450  73.260  53.370
   C    69.800  73.760  53.990
   N    67.970  75.240  54.800
   O    68.100  76.170  54.020
   C    67.340  75.590  56.190
   C    65.880  76.100  55.860
   C    68.140  76.780  56.780
   C    67.290  74.460  57.170
   C    69.760  70.590  60.770
   H    72.280  61.300  53.690
   H    71.650  62.300  55.070
   H    70.570  61.100  54.370
   H    70.520  61.130  51.560
   H    69.780  62.640  51.190
   H    69.050  61.690  52.340
   H    73.780  65.340  52.090
   H    73.450  66.450  54.450
   H    74.560  65.280  55.100
   H    74.780  67.340  51.560
   H    75.210  68.600  52.630
   H    73.690  67.810  52.930
   H    75.180  68.020  55.430
   H    76.700  68.180  54.680
   H    76.500  66.730  55.510
   H    76.930  63.600  50.670
   H    76.000  65.170  50.700
   H    77.740  65.020  51.050
   H    78.490  64.430  53.250
   H    77.790  62.870  52.950
   H    77.350  63.850  54.410
   H    75.240  63.410  53.950
   H    74.870  63.130  52.280
   H    69.150  63.310  54.420
   H    70.570  64.280  54.600
   H    70.140  65.270  51.280
   H    70.720  66.360  52.490
   H    69.230  66.640  51.520
   H    65.370  63.920  51.780
   H    66.860  61.870  51.560
   H    66.250  61.270  53.080
   H    65.000  62.650  49.800
   H    65.670  61.060  49.580
   H    63.910  61.360  49.530
   H    65.660  59.400  51.970
   H    64.180  59.180  51.190
   H    64.290  59.720  52.950
   H    61.630  64.020  52.060
   H    62.470  65.000  53.350
   H    63.240  64.750  51.800
   H    61.680  62.990  54.630
   H    61.330  61.860  53.540
   H    62.670  61.620  54.650
   H    64.790  62.330  54.410
   H    64.570  64.020  54.350
   H    69.460  66.220  54.820
   H    68.130  65.120  55.070
   H    65.800  66.040  52.980
   H    65.580  65.830  54.730
   H    65.240  67.310  53.880
   H    68.190  68.610  50.740
   H    67.130  70.720  51.640
   H    65.640  70.360  50.910
   H    69.290  70.460  49.810
   H    68.670  72.000  50.560
   H    68.950  71.810  48.840
   H    66.510  72.210  48.010
   H    65.150  71.390  48.850
   H    66.090  72.570  49.740
   H    67.160  66.330  47.870
   H    68.520  67.240  48.490
   H    68.010  67.500  46.890
   H    65.510  68.830  46.610
   H    64.920  67.500  47.520
   H    64.620  69.180  48.110
   H    66.400  66.950  50.030
   H    65.250  68.060  50.130
   H    68.410  68.260  55.650
   H    67.410  67.140  56.460
   H    66.960  70.160  54.070
   H    65.590  70.770  55.050
   H    65.390  69.430  54.100
   H    62.940  68.060  57.680
   H    62.640  71.040  58.100
   H    63.340  69.860  59.220
   H    60.200  71.330  58.070
   H    60.870  71.840  59.680
   H    59.400  70.870  59.640
   H    60.280  69.380  61.080
   H    61.710  68.460  60.540
   H    61.970  70.070  61.050
   H    61.250  66.510  56.850
   H    59.620  66.520  57.070
   H    60.240  66.960  55.500
   H    59.210  70.440  56.550
   H    59.170  69.220  55.280
   H    58.250  68.920  56.710
   H    61.640  70.220  55.970
   H    61.880  68.700  55.390
   H    67.880  70.320  56.700
   H    66.270  70.670  57.190
   H    65.580  68.510  59.210
   H    66.900  67.710  60.030
   H    66.600  67.290  58.520
   H    71.330  68.260  59.180
   H    69.980  65.890  60.720
   H    70.660  67.280  61.480
   H    72.940  67.820  61.760
   H    73.850  66.360  62.080
   H    72.390  66.600  62.990
   H    71.530  64.030  60.460
   H    71.230  64.540  62.130
   H    72.940  64.100  61.570
   H    72.690  64.270  56.790
   H    71.870  63.630  58.240
   H    73.570  63.970  58.180
   H    72.920  67.760  57.730
   H    72.790  66.770  56.370
   H    74.230  66.550  57.340
   H    70.280  65.420  58.550
   H    70.700  66.680  57.260
   H    66.560  71.000  59.620
   H    67.280  69.750  60.510
   H    67.660  72.100  61.800
   H    68.940  73.080  61.240
   H    67.510  73.220  60.330
   H    69.360  74.080  57.200
   H    67.440  72.250  55.660
   H    69.110  72.160  55.540
   H    66.450  73.000  53.710
   H    67.800  72.290  53.000
   H    67.460  73.880  52.480
   H    70.330  74.700  54.140
   H    70.480  72.990  54.340
   H    69.890  73.650  52.910
   H    65.210  75.320  55.490
   H    65.460  76.500  56.780
   H    65.920  76.840  55.060
   H    68.350  77.470  55.970
   H    69.140  76.590  57.170
   H    67.520  77.300  57.510
   H    66.410  73.830  57.060
   H    67.350  74.780  58.210
   H    70.360  69.950  60.130
   H    70.360  71.300  61.330
   H    69.340  69.940  61.540
  