239
PTMA_CHAIN10_time20
 C    78.260  84.330  53.660
   C    77.500  83.550  52.510
   C    77.610  84.220  51.120
   C    76.060  83.600  53.040
   O    75.680  82.660  53.700
   O    75.300  84.550  52.550
   C    73.890  84.450  52.590
   C    73.330  84.950  53.880
   C    71.850  85.170  53.800
   C    71.150  84.200  54.700
   C    71.350  86.530  54.230
   N    71.310  85.060  52.440
   H    70.260  84.800  52.320
   C    72.050  85.300  51.200
   C    71.750  84.150  50.150
   C    71.580  86.700  50.690
   C    73.540  85.360  51.440
   C    78.070  82.110  52.480
   C    77.600  81.040  51.450
   C    76.070  81.140  51.210
   C    78.340  81.260  50.060
   O    77.700  81.320  49.010
   O    79.660  81.420  50.170
   C    80.470  81.690  48.990
   C    80.950  83.100  49.120
   C    81.980  83.520  48.040
   C    81.270  84.370  46.950
   C    83.000  84.530  48.740
   N    82.800  82.420  47.400
   O    83.660  82.680  46.550
   C    82.500  81.030  47.710
   C    81.710  80.520  46.510
   C    83.740  80.220  47.780
   C    81.750  80.760  49.010
   C    77.930  79.690  52.140
   C    77.760  78.230  51.570
   C    77.930  77.280  52.840
   C    78.860  78.090  50.580
   O    78.820  78.420  49.400
   O    79.950  77.530  51.220
   C    80.990  77.100  50.420
   C    80.650  76.010  49.440
   C    81.810  75.730  48.510
   C    81.660  76.690  47.260
   C    81.780  74.320  47.940
   N    83.100  76.150  49.130
   H    83.910  76.580  48.540
   C    83.310  76.080  50.600
   C    84.490  77.000  50.900
   C    83.740  74.710  50.940
   C    82.050  76.510  51.320
   C    76.370  77.970  50.900
   C    75.950  76.610  50.160
   C    77.030  75.990  49.240
   C    75.700  75.580  51.260
   O    76.270  74.430  51.400
   O    74.950  76.040  52.180
   C    74.510  75.150  53.230
   C    75.480  74.940  54.340
   C    74.970  74.110  55.560
   C    75.880  74.340  56.820
   C    75.010  72.570  55.350
   N    73.620  74.510  56.000
   O    73.170  74.280  57.110
   C    72.650  75.030  54.900
   C    71.830  73.900  54.380
   C    71.580  75.940  55.550
   C    73.300  75.830  53.830
   C    74.700  76.930  49.330
   C    73.630  75.900  48.780
   C    74.300  74.540  48.440
   C    72.510  75.740  49.810
   O    72.380  74.680  50.460
   O    71.810  76.890  49.970
   C    70.800  77.020  50.910
   C    70.810  78.480  51.310
   C    69.620  78.920  52.130
   C    70.060  79.310  53.570
   C    68.940  80.110  51.380
   N    68.680  77.860  52.340
   H    67.940  78.040  53.130
   C    68.380  76.830  51.280
   C    66.980  77.090  50.640
   C    68.210  75.550  52.090
   C    69.480  76.620  50.330
   C    73.050  76.530  47.410
   C    72.060  75.690  46.460
   C    70.880  74.920  47.250
   C    72.890  74.710  45.590
   O    73.770  75.150  44.870
   O    72.490  73.450  45.810
   C    72.930  72.330  45.110
   C    73.090  71.190  46.120
   C    73.590  69.870  45.540
   C    73.020  68.700  46.340
   C    75.130  69.860  45.680
   N    73.300  69.770  44.090
   O    74.080  69.080  43.380
   C    72.170  70.590  43.400
   C    70.950  69.720  43.100
   C    72.580  71.050  41.990
   C    71.790  71.870  44.180
   C    71.370  76.650  45.460
   H    78.110  85.400  53.530
   H    77.910  83.950  54.620
   H    79.340  84.130  53.680
   H    78.620  84.110  50.740
   H    77.310  85.270  51.180
   H    76.950  83.770  50.380
   H    73.560  83.430  52.370
   H    73.570  84.370  54.770
   H    73.790  85.910  54.130
   H    71.430  83.190  54.390
   H    70.060  84.230  54.770
   H    71.590  84.280  55.690
   H    70.270  86.530  54.120
   H    71.810  87.350  53.670
   H    71.600  86.750  55.260
   H    70.880  84.460  49.570
   H    72.520  84.110  49.380
   H    71.780  83.120  50.510
   H    70.510  86.720  50.490
   H    72.210  86.970  49.840
   H    71.740  87.520  51.400
   H    73.790  86.390  51.660
   H    74.140  85.080  50.570
   H    79.160  82.160  52.430
   H    78.120  81.770  53.510
   H    75.710  82.120  50.910
   H    75.470  80.810  52.050
   H    75.710  80.510  50.400
   H    79.870  81.570  48.090
   H    80.120  83.810  49.090
   H    81.370  83.270  50.110
   H    81.070  85.370  47.330
   H    81.880  84.550  46.060
   H    80.350  83.940  46.550
   H    83.730  84.150  49.460
   H    82.520  85.390  49.200
   H    83.640  84.990  47.990
   H    81.420  81.390  45.930
   H    82.170  79.790  45.830
   H    80.820  80.040  46.920
   H    84.400  80.490  46.960
   H    84.170  80.390  48.770
   H    83.640  79.140  47.800
   H    82.330  80.880  49.930
   H    81.400  79.740  48.910
   H    77.360  79.760  53.060
   H    78.990  79.750  52.400
   H    77.740  76.210  52.700
   H    78.900  77.420  53.320
   H    77.270  77.490  53.680
   H    81.450  77.920  49.870
   H    79.800  76.240  48.810
   H    80.290  75.140  49.990
   H    80.900  76.340  46.560
   H    82.570  76.660  46.660
   H    81.350  77.700  47.540
   H    81.140  73.700  48.560
   H    81.290  74.300  46.960
   H    82.750  73.830  47.880
   H    85.420  76.630  50.460
   H    84.610  76.980  51.980
   H    84.370  78.040  50.610
   H    84.520  74.380  50.260
   H    84.190  74.680  51.930
   H    82.850  74.090  50.910
   H    82.100  77.190  52.170
   H    81.640  75.670  51.880
   H    76.440  78.730  50.120
   H    75.610  78.360  51.570
   H    76.730  75.040  48.790
   H    77.940  75.710  49.760
   H    77.170  76.720  48.450
   H    74.110  74.220  52.830
   H    75.830  75.940  54.580
   H    76.430  74.520  54.020
   H    75.440  73.790  57.660
   H    75.850  75.390  57.110
   H    76.910  74.000  56.710
   H    74.320  72.260  54.570
   H    75.920  72.180  54.890
   H    74.740  71.910  56.180
   H    72.450  73.220  53.800
   H    71.360  73.400  55.230
   H    71.000  74.290  53.780
   H    70.870  76.460  54.900
   H    71.110  75.380  56.370
   H    72.080  76.810  55.970
   H    73.620  76.810  54.200
   H    72.530  75.960  53.080
   H    74.110  77.740  49.770
   H    75.040  77.440  48.420
   H    74.810  74.170  49.330
   H    74.990  74.580  47.600
   H    73.440  73.890  48.330
   H    70.920  76.350  51.760
   H    71.020  79.120  50.460
   H    71.750  78.620  51.840
   H    70.810  80.100  53.500
   H    70.690  78.500  53.940
   H    69.290  79.680  54.250
   H    69.690  80.840  51.070
   H    68.250  80.600  52.070
   H    68.340  79.750  50.550
   H    66.150  77.370  51.290
   H    66.750  76.190  50.070
   H    67.020  77.940  49.950
   H    69.010  75.320  52.800
   H    68.130  74.740  51.360
   H    67.250  75.540  52.600
   H    69.340  77.060  49.340
   H    69.600  75.560  50.110
   H    72.530  77.440  47.680
   H    73.810  76.910  46.740
   H    71.170  74.230  48.040
   H    70.260  75.660  47.760
   H    70.130  74.450  46.620
   H    73.820  72.520  44.500
   H    72.090  71.140  46.560
   H    73.750  71.680  46.840
   H    73.000  68.960  47.400
   H    73.650  67.820  46.290
   H    71.980  68.460  46.140
   H    75.590  70.600  45.030
   H    75.340  70.110  46.710
   H    75.450  68.840  45.440
   H    71.230  68.990  42.330
   H    70.670  69.120  43.960
   H    70.120  70.330  42.740
   H    73.460  71.640  42.260
   H    72.000  71.790  41.450
   H    72.950  70.180  41.440
   H    70.880  71.780  44.760
   H    71.510  72.660  43.480
   H    72.040  77.490  45.250
   H    71.050  76.170  44.540
   H    70.480  77.070  45.920
  