239
PTMA_CHAIN10_time18
 C    80.460  82.090  55.720
   C    79.650  82.100  54.360
   C    80.110  83.290  53.530
   C    78.160  82.350  54.790
   O    77.580  81.420  55.370
   O    77.710  83.610  54.600
   C    76.440  83.980  55.160
   C    76.730  84.730  56.450
   C    75.540  85.180  57.140
   C    74.800  84.150  57.960
   C    75.990  86.220  58.060
   N    74.650  85.820  56.130
   H    73.880  86.480  56.530
   C    74.440  85.380  54.730
   C    73.280  84.360  54.610
   C    73.960  86.620  53.960
   C    75.700  84.870  54.150
   C    79.830  80.750  53.600
   C    79.040  80.450  52.240
   C    77.550  80.820  52.230
   C    79.850  81.180  51.130
   O    79.260  81.980  50.390
   O    81.150  81.070  51.270
   C    81.940  81.560  50.170
   C    82.520  83.010  50.440
   C    83.310  83.600  49.270
   C    82.420  84.400  48.280
   C    84.420  84.490  49.850
   N    84.050  82.490  48.510
   O    84.580  82.920  47.430
   C    84.210  81.060  48.950
   C    84.000  80.120  47.720
   C    85.610  80.800  49.510
   C    83.190  80.640  50.030
   C    79.220  78.860  52.010
   C    79.000  78.020  50.710
   C    78.710  76.530  51.250
   C    80.280  78.040  49.780
   O    80.500  79.020  49.020
   O    81.100  76.930  49.820
   C    82.120  76.690  48.900
   C    81.750  75.690  47.770
   C    82.870  75.600  46.790
   C    82.900  76.810  45.810
   C    82.800  74.300  45.940
   N    84.230  75.700  47.410
   H    85.040  75.910  46.720
   C    84.460  75.750  48.900
   C    85.580  76.830  49.080
   C    85.070  74.440  49.430
   C    83.270  76.170  49.780
   C    77.780  78.450  49.800
   C    77.190  77.490  48.680
   C    78.220  76.890  47.690
   C    76.240  76.410  49.260
   O    76.510  75.200  49.200
   O    75.340  76.890  50.130
   C    74.490  76.030  50.880
   C    75.230  75.330  52.100
   C    74.240  74.680  53.020
   C    74.980  74.420  54.350
   C    73.760  73.330  52.470
   N    73.050  75.550  53.340
   O    72.470  75.420  54.430
   C    72.450  76.380  52.260
   C    71.420  75.470  51.390
   C    71.560  77.430  52.940
   C    73.520  77.060  51.460
   C    76.480  78.580  47.780
   C    75.290  78.310  46.770
   C    75.280  76.860  46.280
   C    74.040  78.640  47.650
   O    73.270  77.670  48.030
   O    73.880  79.930  47.810
   C    72.910  80.420  48.670
   C    73.610  81.540  49.390
   C    72.660  82.040  50.460
   C    72.440  81.160  51.660
   C    73.160  83.370  51.020
   N    71.310  82.280  49.880
   H    70.660  82.950  50.450
   C    70.780  81.620  48.600
   C    69.940  82.620  47.760
   C    69.860  80.600  49.160
   C    71.890  81.040  47.810
   C    75.420  79.270  45.480
   C    74.470  79.290  44.290
   C    73.020  79.620  44.690
   C    74.590  78.030  43.410
   O    75.690  77.670  42.950
   O    73.450  77.380  43.100
   C    73.410  76.140  42.410
   C    73.450  75.000  43.370
   C    73.270  73.610  42.770
   C    72.460  72.860  43.800
   C    74.610  72.850  42.490
   N    72.310  73.650  41.550
   O    72.220  72.670  40.910
   C    71.900  74.900  40.820
   C    70.420  74.850  40.420
   C    72.610  75.030  39.550
   C    72.090  76.070  41.680
   C    74.950  80.500  43.410
   H    80.210  81.190  56.290
   H    81.520  82.260  55.580
   H    80.080  82.870  56.390
   H    80.990  83.010  52.950
   H    80.280  84.160  54.160
   H    79.430  83.630  52.750
   H    75.890  83.060  55.350
   H    77.400  84.200  57.140
   H    77.340  85.600  56.200
   H    73.970  83.680  57.450
   H    74.380  84.440  58.920
   H    75.570  83.420  58.210
   H    76.740  86.010  58.820
   H    75.150  86.740  58.520
   H    76.440  87.070  57.570
   H    72.800  84.520  53.640
   H    73.750  83.380  54.670
   H    72.550  84.400  55.420
   H    73.040  87.120  54.260
   H    73.810  86.320  52.930
   H    74.700  87.420  53.900
   H    76.300  85.720  53.830
   H    75.660  84.190  53.300
   H    80.900  80.540  53.510
   H    79.540  80.020  54.360
   H    77.330  81.880  52.350
   H    76.960  80.190  52.890
   H    77.230  80.730  51.190
   H    81.420  81.500  49.220
   H    81.650  83.650  50.630
   H    83.060  82.960  51.380
   H    81.550  83.800  48.000
   H    82.120  85.350  48.720
   H    83.050  84.640  47.420
   H    83.910  85.250  50.450
   H    84.920  84.890  48.970
   H    85.220  83.900  50.270
   H    84.820  80.230  47.020
   H    83.910  79.090  48.070
   H    83.060  80.360  47.210
   H    86.270  80.760  48.640
   H    86.020  81.480  50.250
   H    85.540  79.780  49.890
   H    83.550  80.750  51.050
   H    82.810  79.620  50.020
   H    78.620  78.430  52.810
   H    80.270  78.630  52.170
   H    78.720  75.810  50.430
   H    79.420  76.180  52.000
   H    77.720  76.550  51.700
   H    82.440  77.680  48.570
   H    80.850  76.020  47.250
   H    81.530  74.750  48.280
   H    83.510  76.490  44.970
   H    83.310  77.720  46.260
   H    81.860  76.860  45.470
   H    81.910  74.260  45.310
   H    83.710  74.010  45.410
   H    82.620  73.500  46.650
   H    86.590  76.430  48.950
   H    85.650  77.240  50.080
   H    85.490  77.580  48.290
   H    84.350  73.630  49.420
   H    85.880  74.060  48.810
   H    85.380  74.620  50.460
   H    83.520  76.980  50.470
   H    82.800  75.380  50.380
   H    78.070  79.420  49.420
   H    76.980  78.680  50.510
   H    78.770  76.190  48.320
   H    78.820  77.630  47.150
   H    77.750  76.220  46.980
   H    74.030  75.350  50.170
   H    75.720  76.170  52.610
   H    76.070  74.690  51.860
   H    75.920  73.930  54.110
   H    74.410  73.860  55.090
   H    75.270  75.330  54.870
   H    72.870  72.890  52.930
   H    73.460  73.470  51.440
   H    74.580  72.630  52.320
   H    70.480  75.360  51.930
   H    71.240  76.020  50.460
   H    71.710  74.460  51.110
   H    72.130  78.210  53.460
   H    71.010  78.080  52.260
   H    70.880  76.920  53.630
   H    74.040  77.670  52.210
   H    73.110  77.690  50.680
   H    76.120  79.350  48.470
   H    77.220  79.180  47.250
   H    75.060  76.190  47.110
   H    76.170  76.500  45.770
   H    74.410  76.780  45.630
   H    72.480  79.730  49.410
   H    73.800  82.360  48.700
   H    74.580  81.240  49.780
   H    71.880  81.630  52.470
   H    73.380  81.000  52.200
   H    72.060  80.170  51.410
   H    72.370  83.790  51.650
   H    73.450  84.140  50.300
   H    74.070  83.240  51.610
   H    69.390  82.200  46.920
   H    70.760  83.210  47.360
   H    69.260  83.290  48.290
   H    69.260  80.120  48.390
   H    69.190  81.100  49.860
   H    70.470  79.890  49.730
   H    72.300  81.850  47.210
   H    71.490  80.340  47.070
   H    75.540  80.290  45.850
   H    76.450  79.070  45.200
   H    72.480  78.850  45.240
   H    73.070  80.580  45.210
   H    72.470  79.790  43.760
   H    74.300  76.100  41.790
   H    72.790  75.230  44.210
   H    74.430  74.960  43.830
   H    72.070  71.900  43.480
   H    71.500  73.310  44.060
   H    73.030  72.670  44.710
   H    75.430  73.410  42.040
   H    75.030  72.370  43.370
   H    74.430  71.970  41.880
   H    69.950  75.720  39.950
   H    70.380  74.120  39.620
   H    69.720  74.530  41.190
   H    72.370  75.860  38.870
   H    72.630  74.160  38.890
   H    73.640  75.220  39.850
   H    71.290  76.130  42.420
   H    72.100  76.990  41.100
   H    74.730  81.430  43.940
   H    76.010  80.580  43.200
   H    74.260  80.520  42.560
  