239
PTMA_CHAIN8_time14
 C    61.370  39.450  52.870
   C    60.900  38.260  53.850
   C    59.560  38.870  54.420
   C    61.950  38.160  54.930
   O    61.670  38.230  56.130
   O    63.160  37.940  54.540
   C    64.290  37.990  55.410
   C    65.390  37.210  54.790
   C    66.740  37.460  55.380
   C    67.220  36.180  56.060
   C    67.870  37.870  54.430
   N    66.760  38.500  56.490
   H    67.410  38.330  57.350
   C    65.920  39.690  56.450
   C    65.240  39.960  57.840
   C    66.790  40.890  56.120
   C    64.810  39.450  55.420
   C    60.710  36.990  52.960
   C    60.030  35.670  53.620
   C    60.750  35.220  54.960
   C    58.500  35.940  53.910
   O    58.020  35.600  55.000
   O    57.970  36.680  53.000
   C    56.560  36.790  52.950
   C    56.180  38.020  53.760
   C    54.700  38.200  53.710
   C    53.980  37.370  54.730
   C    54.390  39.620  54.110
   N    54.140  38.080  52.360
   H    53.190  38.550  52.120
   C    54.670  37.140  51.340
   C    54.080  35.750  51.600
   C    54.340  37.510  49.880
   C    56.220  37.100  51.540
   C    60.360  34.550  52.510
   C    59.510  33.220  52.310
   C    60.560  32.390  51.560
   C    58.240  33.510  51.510
   O    57.180  33.920  52.000
   O    58.350  33.210  50.200
   C    57.300  33.460  49.180
   C    56.090  32.620  49.240
   C    55.120  32.800  48.040
   C    53.870  33.480  48.530
   C    54.720  31.440  47.440
   N    55.670  33.730  46.970
   H    54.960  34.300  46.380
   C    57.150  33.810  46.630
   C    57.380  35.320  46.390
   C    57.280  33.010  45.320
   C    57.910  33.300  47.800
   C    59.110  32.450  53.640
   C    58.340  31.030  53.760
   C    57.320  30.820  52.560
   C    59.340  29.840  53.680
   O    60.550  30.020  53.680
   O    58.810  28.620  53.680
   C    59.490  27.410  53.350
   C    60.170  26.900  54.600
   C    61.040  25.720  54.290
   C    61.300  24.760  55.480
   C    62.480  26.140  53.830
   N    60.390  24.930  53.200
   H    61.020  24.180  52.710
   C    58.980  25.120  52.720
   C    58.980  24.920  51.260
   C    58.060  24.060  53.310
   C    58.450  26.520  52.960
   C    57.490  30.830  55.120
   C    57.920  31.090  56.630
   C    57.030  30.130  57.470
   C    59.430  30.600  56.820
   O    59.620  29.480  57.240
   O    60.360  31.440  56.460
   C    61.760  31.100  56.370
   C    62.590  32.230  55.810
   C    64.080  32.090  55.620
   C    64.510  31.460  54.260
   C    64.730  33.450  55.630
   N    64.610  31.290  56.800
   H    65.680  31.270  57.010
   C    63.740  30.390  57.650
   C    64.400  30.420  59.050
   C    63.760  28.960  57.070
   C    62.380  31.000  57.750
   C    57.860  32.540  57.130
   C    56.560  33.360  57.410
   C    55.630  33.490  56.230
   C    56.970  34.780  57.940
   O    58.130  35.110  58.180
   O    55.870  35.530  58.190
   C    56.030  36.750  58.910
   C    56.360  37.900  57.980
   C    56.620  39.210  58.730
   C    56.760  40.340  57.640
   C    58.040  39.190  59.400
   N    55.510  39.510  59.690
   O    55.310  40.680  60.080
   C    54.900  38.370  60.410
   C    53.470  38.830  60.770
   C    55.580  38.080  61.710
   C    54.770  37.070  59.600
   C    55.730  32.830  58.540
   H    61.610  40.420  53.300
   H    62.320  39.270  52.380
   H    60.730  39.470  51.990
   H    58.820  39.140  53.670
   H    59.640  39.800  54.980
   H    59.070  38.210  55.130
   H    63.890  37.680  56.380
   H    65.080  36.170  54.900
   H    65.350  37.360  53.710
   H    67.420  35.440  55.280
   H    66.510  35.850  56.820
   H    68.190  36.260  56.560
   H    68.120  37.120  53.670
   H    68.750  38.100  55.030
   H    67.690  38.850  54.010
   H    64.720  40.910  57.720
   H    64.410  39.280  58.020
   H    65.970  39.950  58.650
   H    67.460  41.220  56.920
   H    66.090  41.700  55.920
   H    67.350  40.660  55.210
   H    65.300  39.640  54.470
   H    64.040  40.220  55.530
   H    60.190  37.250  52.040
   H    61.750  36.760  52.730
   H    61.810  35.190  54.740
   H    60.290  34.400  55.520
   H    60.540  35.990  55.710
   H    56.160  35.880  53.390
   H    56.500  37.900  54.800
   H    56.610  38.860  53.210
   H    54.330  37.660  55.720
   H    52.900  37.230  54.660
   H    54.400  36.390  54.500
   H    53.350  39.920  54.090
   H    54.900  40.380  53.520
   H    54.760  39.850  55.110
   H    53.060  35.640  51.240
   H    54.620  34.990  51.040
   H    53.860  35.520  52.640
   H    53.260  37.600  49.840
   H    54.900  38.370  49.520
   H    54.700  36.700  49.240
   H    56.590  38.060  51.190
   H    56.730  36.440  50.840
   H    61.390  34.240  52.680
   H    60.350  35.020  51.530
   H    60.880  32.890  50.640
   H    61.460  32.200  52.140
   H    60.160  31.390  51.340
   H    56.930  34.480  49.310
   H    55.700  32.850  50.230
   H    56.510  31.630  49.390
   H    53.920  34.510  48.890
   H    53.480  32.940  49.400
   H    53.070  33.660  47.820
   H    55.610  30.850  47.230
   H    54.140  30.820  48.120
   H    54.150  31.540  46.510
   H    56.870  35.550  45.450
   H    58.430  35.600  46.310
   H    56.930  35.920  47.180
   H    56.740  33.450  44.480
   H    58.340  33.070  45.070
   H    56.980  31.960  45.400
   H    58.930  33.690  47.760
   H    58.120  32.250  47.610
   H    58.460  33.080  54.260
   H    60.030  32.320  54.220
   H    56.550  31.580  52.470
   H    56.720  29.930  52.780
   H    57.770  30.760  51.570
   H    60.090  27.540  52.450
   H    59.510  26.690  55.450
   H    60.880  27.680  54.880
   H    61.650  25.270  56.380
   H    62.020  23.950  55.370
   H    60.370  24.340  55.870
   H    62.480  26.750  52.920
   H    63.020  26.570  54.670
   H    63.160  25.300  53.660
   H    59.660  25.570  50.710
   H    59.300  23.930  50.930
   H    57.980  24.960  50.830
   H    58.370  23.020  53.190
   H    57.910  24.200  54.380
   H    57.140  24.050  52.730
   H    57.640  26.510  53.700
   H    57.890  26.880  52.100
   H    56.620  31.440  54.840
   H    57.070  29.830  54.980
   H    55.960  30.320  57.330
   H    57.300  30.260  58.520
   H    57.290  29.120  57.160
   H    61.860  30.230  55.720
   H    62.440  33.150  56.360
   H    62.270  32.400  54.780
   H    65.600  31.460  54.240
   H    64.130  32.120  53.480
   H    64.050  30.480  54.180
   H    64.780  33.870  56.640
   H    64.270  34.020  54.830
   H    65.780  33.370  55.330
   H    65.270  29.770  58.990
   H    63.720  30.110  59.850
   H    64.660  31.470  59.180
   H    63.580  28.910  55.990
   H    63.030  28.450  57.700
   H    64.730  28.530  57.300
   H    62.380  31.950  58.290
   H    61.880  30.340  58.460
   H    58.330  32.520  58.110
   H    58.610  33.100  56.570
   H    54.770  34.140  56.380
   H    56.190  33.860  55.370
   H    55.060  32.590  55.990
   H    56.790  36.700  59.690
   H    55.580  38.100  57.250
   H    57.250  37.630  57.410
   H    55.810  40.880  57.670
   H    56.880  39.880  56.660
   H    57.550  41.040  57.910
   H    58.720  39.030  58.560
   H    58.110  40.110  59.980
   H    58.150  38.410  60.140
   H    53.400  39.480  61.640
   H    53.030  39.290  59.880
   H    52.910  37.910  60.990
   H    56.000  38.950  62.220
   H    56.370  37.330  61.600
   H    54.780  37.580  62.270
   H    54.030  37.320  58.840
   H    54.430  36.200  60.160
   H    55.100  31.940  58.420
   H    56.400  32.520  59.340
   H    54.950  33.420  59.010
  