239
PTMA_CHAIN7_time50
 C    98.960  11.480  15.020
   C    99.460  12.710  15.870
   C    100.680  12.160  16.630
   C    98.320  12.920  16.910
   O    98.530  12.960  18.100
   O    97.170  13.090  16.370
   C    95.920  13.090  17.030
   C    95.260  14.470  16.870
   C    93.750  14.570  17.320
   C    93.830  14.910  18.880
   C    93.060  15.750  16.600
   N    92.920  13.270  17.210
   O    91.840  13.290  17.850
   C    93.550  11.930  16.750
   C    93.430  10.870  17.900
   C    92.670  11.400  15.680
   C    95.050  12.130  16.280
   C    99.530  14.050  14.980
   C    100.360  15.310  15.550
   C    99.940  15.630  16.990
   C    101.860  14.970  15.490
   O    102.630  15.010  16.470
   O    102.140  14.230  14.380
   C    103.230  13.390  14.160
   C    102.660  12.310  13.260
   C    103.660  11.180  13.070
   C    103.360  9.970  14.000
   C    103.550  10.540  11.690
   N    105.130  11.670  13.330
   O    105.930  10.820  13.630
   C    105.560  13.150  13.250
   C    106.710  13.410  14.120
   C    106.240  13.210  11.920
   C    104.390  14.080  13.430
   C    99.970  16.510  14.570
   C    100.860  17.840  14.210
   C    99.810  18.870  13.700
   C    101.880  17.550  13.090
   O    102.570  16.570  13.210
   O    102.020  18.510  12.140
   C    101.650  18.100  10.830
   C    102.720  17.310  10.080
   C    102.220  16.590  8.870
   C    101.570  15.300  9.370
   C    103.410  16.320  7.950
   N    101.140  17.420  8.200
   O    100.610  16.880  7.210
   C    100.940  18.940  8.540
   C    99.470  19.230  8.300
   C    101.640  19.740  7.510
   C    101.230  19.250  9.990
   C    101.560  18.490  15.510
   C    102.950  19.170  15.640
   C    104.100  18.140  15.420
   C    103.230  20.370  14.710
   O    104.320  20.650  14.190
   O    102.150  21.150  14.360
   C    102.390  22.280  13.550
   C    101.400  22.160  12.390
   C    101.340  23.340  11.460
   C    99.890  23.500  10.940
   C    102.110  23.100  10.110
   N    101.870  24.650  11.990
   O    101.670  25.660  11.330
   C    102.460  24.840  13.290
   C    103.910  25.030  13.170
   C    101.780  26.050  13.930
   C    102.090  23.630  14.240
   C    103.160  19.640  17.140
   C    102.210  20.420  18.110
   C    103.230  21.130  19.110
   C    101.440  21.580  17.360
   O    101.830  22.740  17.250
   O    100.190  21.200  17.120
   C    99.230  22.180  16.760
   C    98.020  21.420  16.230
   C    96.940  22.400  15.600
   C    97.460  22.940  14.250
   C    95.600  21.690  15.310
   N    96.740  23.650  16.430
   O    95.740  24.350  16.170
   C    97.800  24.150  17.440
   C    97.040  24.750  18.670
   C    98.650  25.220  16.700
   C    98.810  23.100  17.980
   C    101.250  19.440  18.880
   C    100.640  19.600  20.330
   C    101.670  20.000  21.500
   C    99.930  18.270  20.690
   O    98.950  17.770  20.100
   O    100.730  17.640  21.620
   C    100.590  16.220  21.660
   C    101.860  15.550  21.120
   C    101.900  13.990  21.320
   C    103.350  13.440  21.330
   C    101.160  13.280  20.150
   N    101.180  13.570  22.620
   O    101.120  12.330  22.750
   C    100.700  14.520  23.680
   C    101.670  14.510  24.860
   C    99.350  14.010  24.170
   C    100.550  15.960  23.200
   C    99.510  20.650  20.440
   H    98.670  10.660  15.680
   H    98.080  11.730  14.440
   H    99.750  10.990  14.450
   H    101.550  11.770  16.100
   H    100.420  11.410  17.380
   H    100.940  12.920  17.370
   H    95.970  12.610  18.010
   H    95.780  15.290  17.350
   H    95.290  14.790  15.830
   H    92.900  14.840  19.440
   H    94.240  15.920  18.970
   H    94.600  14.290  19.340
   H    93.710  16.600  16.420
   H    92.220  16.110  17.200
   H    92.620  15.420  15.660
   H    92.410  10.550  18.110
   H    94.030  9.990  17.680
   H    93.800  11.380  18.790
   H    92.870  10.330  15.560
   H    92.940  11.870  14.730
   H    91.610  11.550  15.860
   H    95.020  12.280  15.200
   H    95.530  11.150  16.230
   H    99.800  13.680  13.990
   H    98.530  14.450  14.790
   H    100.370  16.570  17.330
   H    100.250  14.820  17.660
   H    98.880  15.740  17.220
   H    103.570  12.810  15.020
   H    101.850  11.770  13.750
   H    102.380  12.790  12.330
   H    103.990  9.100  13.840
   H    103.460  10.360  15.020
   H    102.330  9.660  13.800
   H    103.540  11.220  10.840
   H    102.570  10.070  11.680
   H    104.250  9.710  11.520
   H    107.680  12.990  13.880
   H    106.910  14.450  14.370
   H    106.490  13.120  15.150
   H    106.780  14.140  11.780
   H    106.930  12.440  11.570
   H    105.480  13.270  11.150
   H    104.080  14.470  12.460
   H    104.610  14.960  14.030
   H    99.090  16.950  15.040
   H    99.770  16.030  13.610
   H    100.260  19.870  13.710
   H    99.450  18.570  12.720
   H    98.960  19.080  14.350
   H    100.730  17.520  10.990
   H    103.100  16.540  10.760
   H    103.560  17.970  9.860
   H    100.830  15.530  10.130
   H    102.260  14.550  9.760
   H    101.070  14.760  8.560
   H    104.180  15.730  8.450
   H    102.940  15.810  7.100
   H    103.820  17.210  7.470
   H    99.120  19.110  7.280
   H    99.240  20.230  8.650
   H    98.790  18.680  8.960
   H    101.210  20.740  7.410
   H    102.700  19.830  7.750
   H    101.550  19.280  6.530
   H    100.430  19.810  10.480
   H    102.020  20.000  10.010
   H    101.570  17.720  16.280
   H    100.840  19.180  15.930
   H    103.850  17.130  15.760
   H    104.990  18.580  15.870
   H    104.390  17.840  14.420
   H    103.380  22.330  13.100
   H    100.390  21.950  12.750
   H    101.610  21.190  11.930
   H    99.490  22.550  10.570
   H    99.730  24.260  10.180
   H    99.280  23.580  11.840
   H    102.100  24.070  9.610
   H    103.150  22.760  10.130
   H    101.600  22.420  9.430
   H    104.460  24.220  13.650
   H    104.290  25.160  12.160
   H    104.360  25.840  13.750
   H    102.020  26.960  13.370
   H    100.700  26.010  14.040
   H    102.240  26.080  14.920
   H    101.050  23.710  14.540
   H    102.590  23.780  15.200
   H    103.480  18.800  17.760
   H    104.090  20.190  17.040
   H    103.760  20.390  19.710
   H    102.710  21.910  19.670
   H    103.920  21.770  18.570
   H    99.550  22.750  15.890
   H    97.460  20.820  16.940
   H    98.360  20.840  15.370
   H    98.110  23.820  14.300
   H    96.630  23.390  13.710
   H    97.970  22.180  13.650
   H    95.140  21.570  16.290
   H    95.670  20.720  14.820
   H    94.890  22.300  14.750
   H    96.360  25.580  18.530
   H    97.740  25.140  19.410
   H    96.560  23.860  19.090
   H    99.610  24.860  16.330
   H    98.920  26.120  17.260
   H    98.130  25.580  15.820
   H    98.350  22.470  18.730
   H    99.660  23.590  18.450
   H    100.450  19.040  18.260
   H    101.810  18.500  18.900
   H    101.840  21.080  21.450
   H    101.140  19.820  22.430
   H    102.660  19.550  21.490
   H    99.690  15.790  21.220
   H    102.790  15.920  21.550
   H    101.970  15.820  20.070
   H    103.820  13.230  20.360
   H    103.450  12.470  21.820
   H    104.020  14.150  21.810
   H    101.220  12.200  20.150
   H    100.120  13.630  20.200
   H    101.650  13.700  19.270
   H    102.540  15.150  24.710
   H    101.130  14.920  25.720
   H    101.970  13.500  25.140
   H    98.640  13.990  23.340
   H    98.830  14.660  24.880
   H    99.400  13.000  24.580
   H    101.260  16.620  23.710
   H    99.570  16.360  23.450
   H    99.210  20.810  21.480
   H    99.900  21.560  20.000
   H    98.640  20.480  19.800
  