239
PTMA_CHAIN8_time10
 C    68.570  30.230  55.310
   C    67.200  29.870  54.740
   C    66.660  31.200  54.210
   C    66.310  29.350  56.020
   O    65.300  29.900  56.300
   O    66.620  28.140  56.580
   C    65.590  27.390  57.270
   C    65.850  25.950  57.020
   C    64.790  25.050  57.500
   C    63.570  25.100  56.560
   C    65.190  23.600  57.610
   N    64.260  25.580  58.770
   H    63.520  24.950  59.270
   C    64.930  26.670  59.570
   C    63.830  27.490  60.200
   C    65.800  25.980  60.680
   C    65.900  27.550  58.790
   C    67.320  28.730  53.700
   C    66.190  28.300  52.690
   C    64.820  28.060  53.390
   C    65.920  29.330  51.600
   O    64.900  29.260  50.840
   O    66.950  30.110  51.360
   C    66.910  31.120  50.330
   C    66.150  32.410  50.720
   C    66.290  33.540  49.620
   C    65.300  33.280  48.480
   C    66.000  34.930  50.310
   N    67.660  33.590  48.990
   O    68.150  34.700  48.650
   C    68.620  32.410  48.880
   C    68.550  31.670  47.530
   C    70.110  32.900  48.910
   C    68.400  31.420  50.000
   C    66.640  26.850  52.090
   C    67.240  26.630  50.630
   C    67.880  25.190  50.690
   C    68.530  27.450  50.350
   O    69.000  27.750  49.230
   O    69.300  27.620  51.520
   C    70.620  28.100  51.450
   C    71.450  26.890  51.830
   C    72.960  27.150  51.630
   C    73.470  26.440  50.390
   C    73.640  26.710  52.960
   N    73.190  28.640  51.730
   H    74.210  28.940  51.500
   C    72.210  29.680  52.230
   C    72.160  30.720  51.120
   C    72.700  30.450  53.450
   C    70.840  29.130  52.460
   C    66.050  26.470  49.500
   C    66.090  27.120  48.090
   C    66.140  28.730  47.920
   C    67.190  26.550  47.170
   O    67.430  27.010  46.030
   O    67.850  25.490  47.580
   C    69.060  25.100  46.850
   C    70.000  24.400  47.800
   C    71.220  23.740  47.180
   C    71.730  22.620  48.030
   C    72.380  24.750  47.200
   N    71.040  23.260  45.770
   O    72.000  22.820  45.160
   C    69.770  23.450  44.970
   C    70.080  24.440  43.740
   C    69.340  22.070  44.290
   C    68.620  24.090  45.780
   C    64.660  26.780  47.470
   C    64.070  25.420  46.900
   C    65.150  24.530  46.260
   C    63.510  24.560  48.010
   O    63.300  23.380  47.930
   O    62.900  25.340  48.860
   C    62.050  24.800  49.870
   C    62.050  25.810  51.020
   C    61.250  25.350  52.220
   C    61.980  24.500  53.230
   C    60.560  26.500  52.920
   N    60.170  24.490  51.710
   H    59.650  23.810  52.390
   C    59.590  24.500  50.330
   C    58.500  25.550  50.210
   C    58.940  23.080  50.160
   C    60.680  24.780  49.310
   C    62.910  25.710  45.980
   C    63.020  25.530  44.400
   C    62.900  24.070  43.940
   C    64.160  26.320  43.700
   O    64.340  27.490  44.050
   O    64.760  25.790  42.600
   C    65.640  26.560  41.830
   C    67.030  26.250  42.300
   C    67.990  27.300  41.720
   C    69.390  26.850  41.600
   C    68.010  28.550  42.630
   N    67.570  27.830  40.390
   O    68.250  28.740  39.830
   C    66.590  27.070  39.490
   C    67.320  26.190  38.580
   C    65.860  28.130  38.550
   C    65.570  26.280  40.310
   C    61.750  26.250  43.890
   H    68.560  31.060  56.010
   H    69.130  29.430  55.800
   H    69.120  30.490  54.410
   H    67.300  31.560  53.400
   H    66.570  32.020  54.920
   H    65.650  31.020  53.850
   H    64.590  27.800  57.180
   H    66.120  25.810  55.970
   H    66.850  25.730  57.380
   H    62.750  24.410  56.800
   H    63.870  24.740  55.570
   H    63.150  26.100  56.520
   H    65.360  23.100  56.650
   H    64.360  22.990  57.960
   H    66.000  23.470  58.320
   H    63.260  26.800  60.820
   H    64.190  28.420  60.630
   H    63.160  28.000  59.510
   H    66.660  25.540  60.170
   H    65.380  25.180  61.300
   H    66.320  26.620  61.390
   H    66.970  27.400  58.930
   H    65.840  28.630  58.940
   H    68.190  28.910  53.070
   H    67.510  27.860  54.330
   H    64.200  27.520  52.670
   H    64.320  28.980  53.680
   H    64.950  27.450  54.290
   H    66.390  30.690  49.470
   H    65.090  32.200  50.810
   H    66.450  32.790  51.690
   H    64.290  33.620  48.690
   H    65.570  33.990  47.690
   H    65.280  32.270  48.070
   H    66.820  35.060  51.020
   H    65.090  34.970  50.900
   H    65.960  35.740  49.580
   H    68.940  30.650  47.540
   H    67.500  31.520  47.300
   H    68.960  32.210  46.680
   H    70.860  32.260  48.450
   H    70.250  33.880  48.450
   H    70.520  32.960  49.920
   H    68.810  31.900  50.890
   H    68.970  30.510  49.810
   H    65.820  26.140  52.190
   H    67.390  26.480  52.800
   H    67.190  24.370  50.870
   H    68.560  24.890  49.890
   H    68.590  25.240  51.510
   H    70.960  28.490  50.490
   H    71.150  26.110  51.120
   H    71.270  26.450  52.810
   H    74.520  26.570  50.110
   H    72.970  26.990  49.590
   H    73.180  25.400  50.250
   H    73.240  27.330  53.760
   H    73.470  25.640  53.110
   H    74.700  26.900  52.850
   H    71.730  30.350  50.190
   H    73.140  31.080  50.810
   H    71.630  31.650  51.350
   H    71.840  30.990  53.850
   H    73.000  29.860  54.320
   H    73.480  31.140  53.130
   H    70.150  29.970  52.520
   H    70.770  28.680  53.460
   H    65.080  26.670  49.970
   H    65.870  25.410  49.320
   H    65.450  29.170  48.640
   H    65.940  29.080  46.910
   H    67.180  29.020  48.100
   H    69.570  25.970  46.440
   H    69.460  23.590  48.290
   H    70.310  25.140  48.540
   H    70.960  21.860  47.920
   H    71.750  23.020  49.050
   H    72.640  22.200  47.610
   H    73.370  24.340  47.000
   H    72.300  25.380  46.320
   H    72.330  25.450  48.040
   H    70.220  25.410  44.210
   H    70.950  24.120  43.180
   H    69.260  24.510  43.020
   H    68.800  22.290  43.370
   H    70.170  21.380  44.110
   H    68.650  21.560  44.970
   H    68.140  23.220  46.220
   H    68.000  24.670  45.100
   H    63.900  27.350  48.010
   H    64.720  27.510  46.670
   H    65.590  24.870  45.320
   H    64.630  23.630  45.940
   H    65.800  24.220  47.080
   H    62.480  23.860  50.220
   H    61.490  26.660  50.630
   H    63.090  26.120  51.170
   H    62.670  25.130  53.800
   H    62.540  23.680  52.780
   H    61.330  24.040  53.980
   H    60.180  27.320  52.310
   H    61.180  27.050  53.630
   H    59.670  26.120  53.420
   H    58.820  26.570  50.440
   H    57.570  25.310  50.740
   H    58.220  25.460  49.160
   H    58.650  23.000  49.110
   H    58.030  23.050  50.750
   H    59.550  22.240  50.490
   H    60.390  25.730  48.850
   H    60.550  24.030  48.530
   H    62.020  25.200  46.340
   H    62.580  26.740  46.140
   H    62.240  23.420  44.490
   H    62.630  24.130  42.880
   H    63.900  23.640  44.030
   H    65.550  27.610  42.090
   H    67.320  25.280  41.900
   H    67.070  26.280  43.380
   H    69.710  26.750  42.640
   H    70.010  27.620  41.150
   H    69.440  25.950  41.000
   H    68.800  29.240  42.330
   H    67.020  29.000  42.630
   H    68.430  28.320  43.610
   H    66.710  25.600  37.890
   H    67.970  26.760  37.920
   H    67.960  25.610  39.250
   H    65.090  27.640  37.950
   H    66.510  28.570  37.800
   H    65.400  28.980  39.060
   H    65.720  25.230  40.070
   H    64.560  26.510  39.950
   H    61.580  27.270  44.250
   H    61.760  26.300  42.800
   H    60.830  25.750  44.180
  