239
PTMA_CHAIN3_time16
 C    86.590  53.170  56.760
   C    88.100  52.970  57.080
   C    88.700  51.980  56.080
   C    88.270  52.520  58.570
   O    88.590  51.420  58.850
   O    87.730  53.380  59.380
   C    87.070  52.900  60.530
   C    87.020  53.910  61.650
   C    86.340  53.540  62.980
   C    87.480  53.460  63.990
   C    85.390  54.710  63.340
   N    85.610  52.260  62.820
   H    85.730  51.640  63.710
   C    85.120  51.740  61.560
   C    85.480  50.200  61.500
   C    83.590  51.860  61.470
   C    85.610  52.520  60.340
   C    88.750  54.390  56.890
   C    90.290  54.710  57.100
   C    90.870  54.200  58.460
   C    91.150  54.080  55.930
   O    92.310  53.760  56.160
   O    90.590  54.210  54.710
   C    91.360  53.700  53.620
   C    91.140  52.190  53.350
   C    92.110  51.620  52.320
   C    93.360  51.060  53.010
   C    91.420  50.520  51.550
   N    92.610  52.610  51.290
   O    93.530  52.320  50.500
   C    91.880  53.970  51.060
   C    92.840  55.170  50.800
   C    91.000  53.780  49.840
   C    91.010  54.360  52.230
   C    90.410  56.330  57.170
   C    91.690  57.200  56.730
   C    91.260  58.610  57.320
   C    91.680  57.310  55.190
   O    92.540  56.780  54.470
   O    90.840  58.150  54.770
   C    90.620  58.330  53.380
   C    91.010  59.800  53.110
   C    90.790  60.070  51.650
   C    91.730  59.400  50.640
   C    90.890  61.600  51.530
   N    89.390  59.750  51.250
   H    88.970  60.140  50.320
   C    88.680  58.600  51.800
   C    88.850  57.410  50.880
   C    87.270  59.170  51.830
   C    89.080  58.310  53.230
   C    93.050  56.730  57.250
   C    94.390  57.570  57.260
   C    94.490  58.470  55.980
   C    94.520  58.640  58.400
   O    93.600  58.730  59.200
   O    95.580  59.520  58.290
   C    95.540  60.650  59.110
   C    96.610  60.520  60.280
   C    96.860  61.820  61.140
   C    98.400  62.160  60.990
   C    96.740  61.530  62.600
   N    96.100  63.030  60.730
   O    95.920  63.970  61.510
   C    95.760  63.270  59.290
   C    94.310  63.630  59.150
   C    96.670  64.290  58.620
   C    96.050  61.910  58.450
   C    95.640  56.610  57.240
   C    95.940  55.490  58.370
   C    97.440  55.350  58.240
   C    95.680  56.020  59.790
   O    96.310  57.020  60.200
   O    94.620  55.530  60.330
   C    94.120  56.170  61.520
   C    92.600  56.030  61.520
   C    91.950  56.370  62.820
   C    91.090  57.550  62.530
   C    91.070  55.310  63.450
   N    92.950  56.940  63.790
   H    92.750  57.780  64.450
   C    94.300  56.280  63.950
   C    94.380  55.480  65.190
   C    95.280  57.440  64.150
   C    94.740  55.460  62.730
   C    95.050  54.190  58.030
   C    95.490  52.730  58.430
   C    94.150  51.910  58.200
   C    95.860  52.580  59.950
   O    95.090  52.300  60.870
   O    97.200  52.800  60.050
   C    97.840  52.430  61.270
   C    98.510  51.060  60.980
   C    99.240  50.500  62.240
   C    100.330  49.440  61.800
   C    98.270  49.750  63.200
   N    99.870  51.570  63.090
   O    100.530  51.190  64.080
   C    99.580  53.050  63.010
   C    100.910  53.810  63.110
   C    98.560  53.420  64.160
   C    98.940  53.460  61.650
   C    96.580  52.180  57.470
   H    86.320  53.770  55.890
   H    86.110  52.200  56.610
   H    86.030  53.610  57.580
   H    88.130  51.060  56.230
   H    89.710  51.750  56.400
   H    88.760  52.280  55.040
   H    87.640  52.070  60.960
   H    87.980  54.390  61.850
   H    86.480  54.780  61.270
   H    87.960  54.400  64.270
   H    88.240  52.740  63.690
   H    87.050  53.090  64.920
   H    85.050  54.570  64.370
   H    84.480  54.760  62.740
   H    85.930  55.650  63.360
   H    85.020  49.610  60.700
   H    86.540  50.110  61.290
   H    85.380  49.760  62.490
   H    83.190  52.830  61.750
   H    83.230  51.080  62.140
   H    83.190  51.630  60.490
   H    85.020  53.350  59.960
   H    85.650  51.800  59.520
   H    88.410  54.790  55.930
   H    88.330  55.160  57.540
   H    90.180  54.550  59.230
   H    91.830  54.610  58.770
   H    90.910  53.120  58.530
   H    92.410  53.960  53.700
   H    91.100  51.580  54.250
   H    90.110  52.080  53.010
   H    93.840  51.820  53.620
   H    93.000  50.250  53.650
   H    94.050  50.690  52.250
   H    90.780  50.960  50.800
   H    90.870  49.860  52.220
   H    92.100  49.850  51.020
   H    93.780  54.950  50.290
   H    92.390  56.000  50.250
   H    93.210  55.580  51.740
   H    90.460  54.620  49.390
   H    91.620  53.360  49.040
   H    90.240  53.020  50.020
   H    89.970  54.110  52.000
   H    90.950  55.430  52.410
   H    90.260  56.510  58.230
   H    89.640  56.850  56.600
   H    91.900  59.450  57.050
   H    90.320  58.910  56.860
   H    91.160  58.800  58.390
   H    91.130  57.630  52.730
   H    92.060  59.820  53.410
   H    90.560  60.550  53.760
   H    91.570  59.720  49.610
   H    91.660  58.310  50.670
   H    92.760  59.740  50.770
   H    90.220  62.290  52.040
   H    91.860  61.900  51.930
   H    90.980  61.820  50.470
   H    88.770  57.670  49.820
   H    88.100  56.640  51.070
   H    89.800  56.890  50.920
   H    86.710  58.270  52.110
   H    87.120  59.990  52.530
   H    86.990  59.470  50.820
   H    88.660  57.330  53.480
   H    88.660  59.070  53.880
   H    93.230  55.800  56.720
   H    92.830  56.480  58.280
   H    94.440  57.900  55.060
   H    95.490  58.890  55.900
   H    93.760  59.280  55.880
   H    94.520  60.860  59.430
   H    97.560  60.150  59.880
   H    96.330  59.750  61.000
   H    98.650  62.210  59.930
   H    98.950  61.340  61.430
   H    98.630  63.090  61.510
   H    96.910  62.450  63.160
   H    95.770  61.090  62.780
   H    97.390  60.740  62.980
   H    93.910  63.740  58.140
   H    93.620  62.940  59.630
   H    94.140  64.560  59.690
   H    97.670  63.880  58.490
   H    96.270  64.610  57.660
   H    96.800  65.200  59.200
   H    97.080  61.850  58.080
   H    95.500  62.130  57.540
   H    95.710  56.030  56.330
   H    96.520  57.260  57.170
   H    97.640  54.930  57.250
   H    97.940  54.700  58.960
   H    98.040  56.260  58.230
   H    94.400  57.220  61.470
   H    92.390  55.000  61.230
   H    92.200  56.650  60.720
   H    91.710  58.390  62.220
   H    90.440  57.840  63.360
   H    90.360  57.330  61.750
   H    90.010  55.520  63.290
   H    91.310  55.300  64.510
   H    91.360  54.350  63.020
   H    94.060  54.440  65.070
   H    93.590  55.830  65.850
   H    95.400  55.560  65.570
   H    95.060  58.180  63.380
   H    96.270  57.030  63.990
   H    95.210  57.920  65.130
   H    94.570  54.390  62.660
   H    95.820  55.410  62.580
   H    94.050  54.360  58.440
   H    94.840  54.160  56.960
   H    93.340  52.300  58.810
   H    93.760  51.930  57.190
   H    94.240  50.910  58.630
   H    97.070  52.310  62.030
   H    99.180  51.210  60.140
   H    97.750  50.360  60.620
   H    101.050  49.280  62.600
   H    101.010  49.760  61.000
   H    99.790  48.530  61.540
   H    97.300  49.530  62.750
   H    98.750  48.850  63.600
   H    97.970  50.360  64.050
   H    101.270  53.840  64.130
   H    101.650  53.230  62.560
   H    100.940  54.800  62.660
   H    98.350  54.480  64.210
   H    98.970  53.210  65.150
   H    97.640  52.840  64.040
   H    99.740  53.370  60.920
   H    98.720  54.520  61.540
   H    97.530  52.690  57.640
   H    96.800  51.120  57.630
   H    96.210  52.380  56.460
  