239
PTMA_CHAIN4_time4
 C    83.370  84.680  18.870
   C    83.840  83.280  18.450
   C    84.160  83.440  16.980
   C    82.620  82.340  18.590
   O    82.040  81.820  17.630
   O    82.330  82.020  19.830
   C    81.410  80.930  20.100
   C    81.610  80.350  21.420
   C    80.770  79.100  21.660
   C    81.420  77.890  20.960
   C    80.520  78.630  23.080
   N    79.490  79.190  21.010
   H    78.830  78.320  20.950
   C    78.880  80.440  20.510
   C    78.130  79.940  19.210
   C    77.790  80.990  21.500
   C    79.980  81.460  20.160
   C    85.130  83.040  19.380
   C    85.970  81.730  19.310
   C    85.130  80.410  19.740
   C    86.510  81.450  17.950
   O    86.430  80.290  17.470
   O    87.020  82.500  17.300
   C    87.850  82.350  16.090
   C    86.980  82.080  14.840
   C    87.740  82.150  13.520
   C    88.040  80.690  13.100
   C    86.780  82.700  12.490
   N    89.000  82.930  13.530
   O    89.590  83.160  12.440
   C    89.660  83.580  14.700
   C    90.870  82.650  14.980
   C    90.120  84.990  14.490
   C    88.660  83.600  15.880
   C    87.140  82.030  20.380
   C    88.600  81.330  20.500
   C    89.180  81.820  21.900
   C    89.550  81.910  19.420
   O    89.600  81.320  18.320
   O    90.420  82.810  19.870
   C    91.270  83.520  18.980
   C    92.550  82.790  19.010
   C    93.730  83.590  18.370
   C    94.090  82.850  16.970
   C    94.930  83.710  19.290
   N    93.240  84.940  17.960
   H    93.740  85.500  17.180
   C    92.360  85.760  18.870
   C    91.580  86.790  17.950
   C    93.170  86.640  19.830
   C    91.430  84.870  19.640
   C    88.420  79.760  20.370
   C    89.580  78.810  20.890
   C    90.940  79.320  20.430
   C    89.470  78.750  22.400
   O    88.490  79.080  23.030
   O    90.500  78.060  23.000
   C    90.700  78.200  24.400
   C    90.520  76.800  25.000
   C    90.480  76.870  26.530
   C    90.990  75.490  27.010
   C    89.050  76.990  26.870
   N    91.390  77.910  27.140
   O    91.250  78.290  28.350
   C    92.430  78.650  26.280
   C    92.550  80.100  26.760
   C    93.810  78.060  26.530
   C    92.110  78.720  24.740
   C    89.550  77.350  20.310
   C    88.310  76.430  20.060
   C    88.990  75.040  19.620
   C    87.490  76.230  21.390
   O    87.890  75.450  22.250
   O    86.470  77.000  21.570
   C    85.830  77.180  22.870
   C    85.240  78.520  23.020
   C    84.850  78.770  24.450
   C    86.000  79.100  25.490
   C    84.010  80.020  24.410
   N    83.980  77.670  24.980
   H    83.390  77.860  25.880
   C    84.190  76.270  24.610
   C    82.830  75.580  24.810
   C    85.110  75.610  25.710
   C    84.760  76.120  23.220
   C    87.390  76.900  18.890
   C    86.250  76.010  18.300
   C    86.850  75.060  17.210
   C    85.090  76.870  17.690
   O    84.220  77.290  18.480
   O    85.140  77.160  16.420
   C    84.080  77.790  15.840
   C    84.540  78.250  14.550
   C    83.570  79.150  13.730
   C    84.140  79.120  12.290
   C    83.540  80.670  14.190
   N    82.140  78.650  13.810
   O    81.310  79.290  13.150
   C    81.720  77.680  14.850
   C    80.880  76.600  14.040
   C    80.770  78.300  15.900
   C    82.760  76.920  15.600
   C    85.560  74.970  19.290
   H    82.450  84.990  18.370
   H    83.000  84.610  19.890
   H    84.100  85.480  18.730
   H    84.370  82.490  16.490
   H    84.970  84.070  16.610
   H    83.370  83.860  16.360
   H    81.560  80.150  19.350
   H    82.670  80.090  21.460
   H    81.360  81.050  22.210
   H    80.740  77.080  20.670
   H    82.270  77.530  21.530
   H    81.750  78.070  19.930
   H    80.390  79.360  23.880
   H    81.370  78.020  23.380
   H    79.590  78.060  23.040
   H    77.410  79.140  19.340
   H    77.700  80.820  18.730
   H    78.910  79.510  18.570
   H    76.830  80.500  21.320
   H    77.610  82.060  21.390
   H    78.070  80.820  22.540
   H    79.980  82.290  20.870
   H    79.830  81.950  19.210
   H    85.860  83.820  19.150
   H    84.810  83.160  20.410
   H    84.180  80.230  19.240
   H    84.840  80.680  20.750
   H    85.690  79.480  19.810
   H    88.530  81.520  16.270
   H    86.510  81.090  14.910
   H    86.040  82.620  14.900
   H    87.150  80.070  12.960
   H    88.570  80.680  12.150
   H    88.730  80.270  13.850
   H    85.900  82.040  12.510
   H    87.240  82.750  11.500
   H    86.490  83.710  12.790
   H    90.540  81.760  15.540
   H    91.420  82.380  14.090
   H    91.520  83.240  15.630
   H    89.320  85.630  14.130
   H    90.570  85.380  15.410
   H    90.870  85.000  13.700
   H    87.820  84.240  15.590
   H    89.060  83.930  16.840
   H    86.720  81.980  21.390
   H    87.390  83.090  20.330
   H    90.250  81.790  22.100
   H    88.870  82.860  22.070
   H    88.620  81.420  22.750
   H    90.940  83.680  17.950
   H    92.380  81.820  18.540
   H    92.820  82.520  20.030
   H    93.400  83.230  16.230
   H    94.030  81.760  16.910
   H    95.070  83.190  16.650
   H    95.550  82.810  19.340
   H    95.610  84.500  18.960
   H    94.720  83.920  20.340
   H    90.910  86.360  17.200
   H    92.320  87.450  17.510
   H    90.940  87.440  18.540
   H    94.050  87.070  19.330
   H    92.540  87.390  20.300
   H    93.530  86.110  20.710
   H    90.440  85.330  19.660
   H    91.640  84.710  20.690
   H    88.300  79.380  19.350
   H    87.530  79.460  20.910
   H    91.000  79.480  19.350
   H    91.730  78.630  20.690
   H    91.160  80.320  20.810
   H    89.950  78.790  24.930
   H    91.160  75.970  24.670
   H    89.550  76.450  24.660
   H    92.070  75.380  26.920
   H    90.450  74.690  26.510
   H    90.890  75.270  28.070
   H    88.440  76.260  26.350
   H    89.040  76.910  27.960
   H    88.630  77.940  26.550
   H    91.620  80.530  26.380
   H    92.500  80.300  27.830
   H    93.390  80.710  26.420
   H    94.590  78.390  25.840
   H    94.150  78.330  27.530
   H    93.760  76.980  26.430
   H    92.850  78.070  24.270
   H    92.360  79.660  24.250
   H    90.170  77.270  19.420
   H    90.120  76.650  20.930
   H    89.750  74.670  20.310
   H    89.460  75.110  18.630
   H    88.150  74.350  19.580
   H    86.670  77.070  23.560
   H    84.440  78.750  22.330
   H    85.970  79.260  22.690
   H    86.540  80.040  25.420
   H    86.810  78.370  25.430
   H    85.690  79.100  26.530
   H    84.690  80.840  24.210
   H    83.710  80.290  25.420
   H    83.210  80.120  23.670
   H    82.230  76.030  25.610
   H    82.870  74.530  25.080
   H    82.240  75.620  23.890
   H    86.030  76.190  25.760
   H    85.320  74.600  25.350
   H    84.620  75.450  26.670
   H    83.910  76.180  22.540
   H    85.100  75.090  23.150
   H    86.800  77.730  19.280
   H    88.040  77.300  18.110
   H    85.970  74.600  16.750
   H    87.510  75.610  16.530
   H    87.360  74.190  17.620
   H    83.770  78.630  16.450
   H    84.870  77.350  14.030
   H    85.430  78.860  14.720
   H    85.220  79.250  12.360
   H    83.720  79.980  11.780
   H    83.860  78.200  11.780
   H    83.310  80.810  15.240
   H    84.470  81.210  14.010
   H    82.890  81.330  13.600
   H    80.670  75.700  14.620
   H    79.900  76.970  13.740
   H    81.430  76.330  13.140
   H    80.350  77.520  16.540
   H    79.850  78.630  15.420
   H    81.130  79.070  16.570
   H    83.120  75.960  15.230
   H    82.400  76.560  16.570
   H    86.180  74.070  19.260
   H    85.130  75.370  20.200
   H    84.650  74.630  18.790
  