239
PTMA_CHAIN10_time14
 C    82.380  81.090  55.830
   C    81.860  80.330  54.600
   C    82.780  80.790  53.480
   C    80.340  80.810  54.310
   O    80.010  81.420  53.290
   O    79.660  80.850  55.440
   C    78.260  81.100  55.360
   C    77.630  80.200  56.460
   C    76.080  80.370  56.310
   C    75.610  79.390  55.190
   C    75.300  80.010  57.580
   N    75.660  81.750  55.900
   H    74.610  82.010  55.800
   C    76.600  82.890  55.610
   C    76.240  83.310  54.140
   C    76.200  84.020  56.530
   C    78.080  82.510  55.740
   C    81.810  78.800  54.910
   C    81.370  77.700  53.820
   C    79.980  77.920  53.310
   C    82.340  77.620  52.610
   O    81.970  77.340  51.460
   O    83.650  77.850  52.930
   C    84.690  77.710  51.980
   C    84.840  78.970  51.110
   C    85.980  78.950  50.150
   C    85.550  78.060  48.940
   C    86.160  80.340  49.600
   N    87.220  78.320  50.690
   O    88.250  78.400  50.070
   C    87.260  77.590  51.970
   C    87.630  76.150  51.590
   C    88.420  78.000  52.860
   C    85.960  77.630  52.800
   C    81.610  76.320  54.650
   C    81.550  74.860  54.090
   C    81.230  74.010  55.330
   C    82.990  74.590  53.520
   O    83.250  74.770  52.350
   O    83.670  73.800  54.400
   C    84.990  73.510  54.120
   C    85.250  72.120  53.570
   C    86.680  72.070  53.060
   C    86.740  72.470  51.520
   C    87.320  70.650  53.100
   N    87.600  72.960  53.720
   H    88.520  73.190  53.170
   C    87.330  73.490  55.090
   C    88.140  74.830  55.090
   C    87.930  72.480  56.090
   C    85.840  73.680  55.420
   C    80.460  74.630  52.990
   C    80.150  73.180  52.410
   C    81.420  72.250  52.450
   C    79.090  72.540  53.430
   O    79.220  71.380  53.960
   O    78.040  73.450  53.780
   C    77.340  73.210  54.930
   C    77.140  74.470  55.750
   C    76.510  74.050  57.110
   C    76.000  75.420  57.750
   C    77.550  73.450  58.070
   N    75.270  73.180  57.060
   O    74.460  73.250  57.980
   C    75.170  72.150  55.970
   C    75.730  70.790  56.410
   C    73.710  71.920  55.560
   C    75.920  72.590  54.700
   C    79.620  73.230  50.970
   C    78.760  72.150  50.230
   C    79.390  70.760  50.300
   C    77.320  72.240  50.810
   O    76.710  71.160  51.120
   O    76.910  73.520  50.890
   C    75.520  73.850  51.270
   C    75.390  75.310  51.650
   C    73.970  75.670  52.040
   C    73.830  76.120  53.520
   C    73.500  76.850  51.220
   N    73.100  74.470  51.860
   H    72.360  74.280  52.630
   C    73.120  73.630  50.630
   C    72.080  74.230  49.650
   C    72.600  72.300  51.130
   C    74.580  73.620  50.090
   C    78.730  72.630  48.710
   C    78.140  71.730  47.600
   C    76.850  70.910  47.960
   C    79.220  70.870  46.950
   O    80.240  71.330  46.450
   O    79.040  69.580  47.020
   C    79.980  68.620  46.560
   C    80.980  68.340  47.690
   C    81.870  67.140  47.390
   C    82.280  66.360  48.640
   C    83.180  67.760  46.800
   N    81.320  66.150  46.450
   O    82.100  65.250  46.090
   C    79.840  66.150  45.970
   C    79.150  64.790  46.480
   C    79.830  66.160  44.500
   C    79.100  67.360  46.430
   C    77.560  72.650  46.500
   H    83.450  81.000  55.970
   H    82.220  82.160  55.890
   H    82.050  80.630  56.760
   H    82.510  80.450  52.480
   H    83.760  80.360  53.700
   H    82.790  81.880  53.430
   H    77.800  80.820  54.410
   H    77.930  79.160  56.340
   H    78.000  80.460  57.450
   H    76.140  79.610  54.270
   H    74.550  79.440  54.940
   H    75.770  78.370  55.540
   H    75.910  79.190  57.960
   H    74.280  79.620  57.440
   H    75.300  80.800  58.330
   H    76.820  84.080  53.640
   H    76.340  82.400  53.540
   H    75.190  83.610  54.170
   H    76.530  85.030  56.300
   H    76.500  83.830  57.560
   H    75.110  84.050  56.600
   H    78.380  82.600  56.790
   H    78.720  83.220  55.210
   H    82.820  78.650  55.300
   H    81.220  78.550  55.790
   H    79.260  78.020  54.120
   H    79.720  77.110  52.620
   H    80.010  78.810  52.680
   H    84.510  76.780  51.450
   H    83.900  79.190  50.600
   H    84.880  79.740  51.880
   H    86.410  77.700  48.380
   H    84.910  77.250  49.280
   H    84.960  78.520  48.150
   H    86.620  80.970  50.360
   H    85.220  80.780  49.260
   H    86.820  80.340  48.720
   H    87.430  75.390  52.350
   H    86.970  75.880  50.760
   H    88.640  75.950  51.230
   H    89.360  78.030  52.320
   H    88.280  79.050  53.140
   H    88.490  77.240  53.640
   H    86.010  78.530  53.420
   H    85.890  76.780  53.480
   H    80.830  76.410  55.410
   H    82.510  76.470  55.240
   H    81.380  72.940  55.180
   H    81.800  74.180  56.250
   H    80.250  74.140  55.800
   H    85.320  74.190  53.340
   H    84.640  72.050  52.670
   H    84.990  71.340  54.290
   H    86.440  73.490  51.290
   H    86.180  71.690  51.000
   H    87.730  72.490  51.060
   H    88.320  70.740  52.690
   H    87.400  70.340  54.140
   H    86.760  69.870  52.590
   H    88.150  75.330  56.050
   H    87.660  75.530  54.400
   H    89.150  74.660  54.730
   H    87.420  71.520  56.140
   H    88.960  72.220  55.860
   H    87.840  72.960  57.070
   H    85.770  74.660  55.880
   H    85.530  73.030  56.240
   H    80.810  75.190  52.120
   H    79.570  75.170  53.310
   H    81.690  71.810  53.410
   H    82.260  72.630  51.870
   H    81.410  71.350  51.830
   H    77.970  72.600  55.580
   H    76.520  75.230  55.260
   H    78.080  74.990  55.920
   H    75.410  75.130  58.620
   H    75.390  76.070  57.130
   H    76.820  76.090  58.020
   H    77.110  73.320  59.060
   H    77.770  72.400  57.850
   H    78.530  73.920  58.190
   H    75.200  69.950  55.960
   H    76.770  70.620  56.160
   H    75.650  70.800  57.500
   H    73.150  72.860  55.640
   H    73.570  71.660  54.520
   H    73.180  71.210  56.190
   H    75.430  73.340  54.070
   H    75.980  71.740  54.010
   H    79.090  74.170  50.830
   H    80.540  73.200  50.400
   H    78.860  70.050  49.660
   H    79.400  70.230  51.240
   H    80.370  70.720  49.830
   H    75.250  73.300  52.170
   H    75.840  75.990  50.930
   H    75.970  75.320  52.570
   H    74.600  76.800  53.880
   H    73.730  75.290  54.230
   H    72.880  76.660  53.600
   H    73.850  76.630  50.210
   H    73.880  77.830  51.500
   H    72.420  76.950  51.100
   H    72.510  74.950  48.960
   H    71.230  74.760  50.080
   H    71.640  73.460  49.020
   H    72.690  71.590  50.310
   H    71.580  72.380  51.490
   H    73.290  71.890  51.870
   H    74.930  74.220  49.250
   H    74.670  72.610  49.690
   H    78.100  73.520  48.630
   H    79.740  72.880  48.420
   H    76.600  70.480  46.990
   H    76.980  70.090  48.670
   H    76.060  71.520  48.390
   H    80.460  68.890  45.620
   H    80.530  68.180  48.670
   H    81.460  69.300  47.830
   H    82.020  66.960  49.500
   H    83.290  65.960  48.560
   H    81.680  65.460  48.770
   H    83.940  66.970  46.860
   H    83.090  67.930  45.720
   H    83.530  68.650  47.320
   H    79.880  64.000  46.350
   H    78.870  64.900  47.530
   H    78.180  64.570  46.020
   H    80.350  65.240  44.240
   H    80.430  66.960  44.070
   H    78.810  66.160  44.110
   H    78.620  67.220  47.410
   H    78.220  67.650  45.860
   H    77.350  72.120  45.570
   H    76.670  73.160  46.840
   H    78.280  73.440  46.280
  