239
PTMA_CHAIN9_time6
 C    74.230  35.050  50.920
   C    75.100  35.870  51.900
   C    76.530  35.820  51.480
   C    74.890  35.240  53.310
   O    75.840  34.750  53.890
   O    73.630  35.250  53.780
   C    73.250  34.640  55.080
   C    73.540  35.690  56.190
   C    73.360  35.050  57.570
   C    74.720  34.560  58.240
   C    72.760  36.070  58.540
   N    72.470  33.860  57.380
   H    72.600  33.060  58.110
   C    71.400  33.760  56.360
   C    71.140  32.290  55.950
   C    70.180  34.470  57.020
   C    71.770  34.520  55.080
   C    74.520  37.330  51.780
   C    74.900  38.550  52.610
   C    74.540  38.270  54.150
   C    76.430  38.930  52.430
   O    77.200  38.840  53.400
   O    76.770  39.340  51.230
   C    78.130  39.750  50.990
   C    78.370  39.460  49.570
   C    79.810  39.800  49.110
   C    80.910  38.830  49.610
   C    79.840  39.900  47.510
   N    80.350  41.130  49.570
   O    81.370  41.580  49.020
   C    79.820  41.740  50.810
   C    80.750  41.690  52.050
   C    79.730  43.200  50.480
   C    78.390  41.260  51.180
   C    74.030  39.770  52.050
   C    73.850  41.220  52.710
   C    72.550  41.260  53.560
   C    73.680  42.070  51.410
   O    74.650  42.370  50.740
   O    72.430  42.500  51.230
   C    72.120  43.300  50.100
   C    72.360  44.790  50.330
   C    71.810  45.640  49.190
   C    72.930  46.130  48.370
   C    71.040  46.840  49.710
   N    70.910  44.900  48.220
   H    70.650  45.500  47.340
   C    70.160  43.670  48.510
   C    70.560  42.770  47.270
   C    68.690  43.980  48.360
   C    70.630  43.010  49.850
   C    75.160  41.680  53.410
   C    75.220  43.100  54.160
   C    74.410  44.270  53.460
   C    74.620  42.820  55.580
   O    73.800  43.590  56.140
   O    74.940  41.650  56.260
   C    74.420  41.440  57.590
   C    72.980  40.810  57.460
   C    72.360  40.490  58.770
   C    71.060  39.720  58.590
   C    72.010  41.860  59.360
   N    73.270  39.750  59.810
   O    72.770  39.220  60.810
   C    74.760  39.820  59.640
   C    75.210  40.790  60.740
   C    75.390  38.570  59.990
   C    75.250  40.330  58.250
   C    76.730  43.590  54.150
   C    77.620  44.300  55.310
   C    76.850  45.560  55.900
   C    77.970  43.280  56.410
   O    77.360  43.290  57.460
   O    78.970  42.410  55.990
   C    79.200  41.250  56.740
   C    78.830  40.100  55.910
   C    79.180  38.660  56.430
   C    77.860  38.050  56.890
   C    79.840  37.720  55.430
   N    80.090  38.710  57.530
   H    80.430  37.760  57.950
   C    80.960  39.920  57.900
   C    82.410  39.550  57.770
   C    80.680  40.090  59.390
   C    80.650  41.160  57.010
   C    78.950  44.750  54.530
   C    80.080  45.560  55.220
   C    79.730  47.070  55.360
   C    81.320  45.540  54.280
   O    81.280  45.160  53.120
   O    82.520  45.730  54.910
   C    83.770  45.740  54.270
   C    84.780  46.380  55.220
   C    86.150  46.560  54.560
   C    87.130  46.920  55.690
   C    86.270  47.780  53.650
   N    86.590  45.300  53.810
   O    87.810  45.080  53.630
   C    85.620  44.290  53.240
   C    86.270  42.850  53.350
   C    85.290  44.620  51.780
   C    84.310  44.360  54.120
   C    80.570  44.970  56.590
   H    73.170  34.980  51.160
   H    74.240  35.450  49.900
   H    74.670  34.060  50.820
   H    77.090  36.230  52.320
   H    76.750  36.450  50.610
   H    76.930  34.820  51.290
   H    73.730  33.670  55.230
   H    74.580  36.000  56.090
   H    72.860  36.540  56.120
   H    75.480  35.310  58.020
   H    74.950  33.610  57.750
   H    74.550  34.550  59.320
   H    72.780  35.670  59.550
   H    71.850  36.570  58.190
   H    73.440  36.910  58.450
   H    71.310  31.510  56.680
   H    70.130  32.180  55.560
   H    71.750  31.950  55.110
   H    69.280  34.200  56.470
   H    70.320  35.540  57.180
   H    70.030  34.130  58.040
   H    71.210  35.450  55.030
   H    71.440  34.030  54.160
   H    74.690  37.750  50.790
   H    73.440  37.320  51.890
   H    73.610  37.700  54.280
   H    74.380  39.230  54.630
   H    75.350  37.820  54.720
   H    78.810  39.140  51.580
   H    78.100  38.410  49.440
   H    77.610  40.030  49.030
   H    81.920  39.230  49.500
   H    80.850  38.640  50.690
   H    80.890  37.800  49.260
   H    80.780  40.250  47.080
   H    79.080  40.430  46.950
   H    79.660  38.890  47.130
   H    81.710  42.150  51.850
   H    80.350  42.190  52.930
   H    80.950  40.640  52.290
   H    80.690  43.720  50.460
   H    79.360  43.390  49.470
   H    79.060  43.710  51.180
   H    77.680  41.880  50.630
   H    78.200  41.450  52.240
   H    73.010  39.440  51.890
   H    74.290  39.760  50.990
   H    71.660  40.830  53.110
   H    72.650  40.830  54.560
   H    72.250  42.290  53.720
   H    72.610  42.980  49.180
   H    73.390  45.080  50.520
   H    71.860  45.130  51.240
   H    73.620  46.520  49.110
   H    72.670  47.040  47.830
   H    73.410  45.360  47.760
   H    70.570  47.430  48.930
   H    70.300  46.520  50.450
   H    71.690  47.550  50.210
   H    69.850  41.950  47.240
   H    71.570  42.350  47.300
   H    70.520  43.370  46.360
   H    68.000  43.160  48.550
   H    68.410  44.750  49.080
   H    68.290  44.340  47.410
   H    70.250  41.990  49.950
   H    69.990  43.550  50.550
   H    75.950  41.640  52.660
   H    75.570  40.900  54.050
   H    74.780  44.560  52.480
   H    74.460  45.120  54.150
   H    73.340  44.070  53.510
   H    74.570  42.340  58.190
   H    73.080  39.830  56.980
   H    72.290  41.390  56.850
   H    70.470  40.310  57.880
   H    70.470  39.500  59.480
   H    71.370  38.740  58.230
   H    71.380  42.550  58.800
   H    71.480  41.620  60.290
   H    72.910  42.380  59.680
   H    74.840  40.500  61.720
   H    76.300  40.870  60.840
   H    74.820  41.800  60.580
   H    76.330  38.690  60.510
   H    74.820  37.930  60.660
   H    75.550  38.010  59.060
   H    75.350  39.510  57.530
   H    76.240  40.760  58.380
   H    77.270  42.650  54.080
   H    76.980  44.060  53.200
   H    76.720  46.380  55.200
   H    77.420  45.920  56.760
   H    75.840  45.380  56.270
   H    78.710  41.270  57.720
   H    79.390  40.110  54.970
   H    77.760  40.170  55.710
   H    77.640  38.340  57.920
   H    77.900  36.960  56.950
   H    77.050  38.210  56.180
   H    80.910  37.910  55.390
   H    79.600  37.880  54.380
   H    79.790  36.650  55.610
   H    83.040  40.430  57.640
   H    82.680  39.090  56.820
   H    82.860  38.830  58.450
   H    79.610  40.070  59.630
   H    81.080  40.940  59.940
   H    81.080  39.210  59.910
   H    81.200  41.010  56.080
   H    80.990  42.080  57.490
   H    79.380  43.800  54.200
   H    78.760  45.330  53.630
   H    78.770  47.260  55.840
   H    80.420  47.610  56.010
   H    79.690  47.510  54.360
   H    83.570  46.350  53.390
   H    84.830  45.670  56.050
   H    84.410  47.320  55.620
   H    88.140  46.960  55.280
   H    87.200  46.200  56.510
   H    87.000  47.910  56.120
   H    87.310  47.910  53.350
   H    85.700  47.490  52.770
   H    85.940  48.620  54.250
   H    87.090  42.830  52.620
   H    86.730  42.680  54.330
   H    85.590  42.030  53.120
   H    86.200  44.560  51.180
   H    84.790  45.570  51.650
   H    84.680  43.810  51.370
   H    84.380  43.740  55.010
   H    83.520  43.890  53.540
   H    79.830  44.720  57.350
   H    81.060  44.000  56.450
   H    81.310  45.650  57.010
  