239
PTMA_CHAIN3_time2
 C    83.260  44.430  56.430
   C    84.760  44.620  56.860
   C    85.590  43.480  56.150
   C    84.750  44.330  58.470
   O    85.270  43.310  58.920
   O    84.120  45.300  59.130
   C    83.940  45.210  60.490
   C    84.980  45.840  61.240
   C    84.730  45.740  62.760
   C    85.010  44.310  63.280
   C    85.660  46.790  63.470
   N    83.350  46.180  63.040
   H    83.120  46.720  63.960
   C    82.280  45.880  62.140
   C    81.660  44.510  62.560
   C    81.150  46.890  62.500
   C    82.670  46.000  60.680
   C    85.090  46.120  56.400
   C    86.560  46.720  56.510
   C    87.200  46.560  57.920
   C    87.430  45.890  55.530
   O    88.440  45.280  55.910
   O    86.880  45.860  54.290
   C    87.510  45.140  53.230
   C    86.380  44.530  52.360
   C    86.900  43.670  51.290
   C    87.350  42.280  51.910
   C    85.740  43.280  50.340
   N    87.980  44.310  50.500
   O    88.270  43.840  49.410
   C    88.870  45.360  51.070
   C    90.300  44.720  51.360
   C    89.170  46.400  49.990
   C    88.340  46.080  52.310
   C    86.380  48.210  56.030
   C    87.620  49.240  55.980
   C    87.870  49.730  57.460
   C    86.960  50.360  55.170
   O    86.670  50.190  53.970
   O    86.550  51.460  55.800
   C    85.570  52.390  55.240
   C    86.330  53.300  54.280
   C    85.530  54.510  53.860
   C    85.130  54.450  52.320
   C    86.380  55.820  53.910
   N    84.300  54.660  54.640
   H    83.470  55.220  54.220
   C    84.220  54.270  56.050
   C    82.730  53.930  56.380
   C    84.560  55.490  56.880
   C    85.170  53.140  56.400
   C    88.930  48.720  55.420
   C    90.110  49.680  54.820
   C    89.620  50.290  53.500
   C    90.630  50.890  55.730
   O    91.840  51.100  55.860
   O    89.760  51.760  56.030
   C    90.010  53.010  56.660
   C    90.140  54.140  55.640
   C    90.500  55.470  56.290
   C    90.050  56.560  55.280
   C    92.040  55.580  56.530
   N    89.700  55.770  57.550
   O    89.540  56.980  57.830
   C    89.180  54.690  58.460
   C    90.090  54.560  59.680
   C    87.790  55.160  58.980
   C    88.920  53.350  57.610
   C    91.340  48.910  54.220
   C    92.350  47.920  55.000
   C    93.680  48.050  54.170
   C    92.710  48.360  56.450
   O    93.850  48.670  56.800
   O    91.590  48.600  57.290
   C    91.780  48.930  58.650
   C    92.230  50.300  59.000
   C    92.720  50.400  60.390
   C    94.170  49.970  60.400
   C    92.630  51.800  60.980
   N    92.030  49.450  61.260
   H    92.430  49.210  62.250
   C    90.670  48.910  60.950
   C    89.620  49.960  61.510
   C    90.470  47.640  61.800
   C    90.610  48.550  59.480
   C    91.700  46.440  55.120
   C    92.530  45.210  55.640
   C    91.710  44.000  55.180
   C    92.680  45.150  57.160
   O    91.900  45.760  57.890
   O    93.920  44.690  57.660
   C    94.180  44.700  59.000
   C    93.660  43.510  59.710
   C    94.010  43.390  61.250
   C    93.900  41.940  61.660
   C    92.950  44.160  62.190
   N    95.410  43.850  61.550
   O    95.830  43.760  62.720
   C    96.110  44.750  60.550
   C    97.620  44.410  60.580
   C    95.950  46.140  61.150
   C    95.670  44.580  59.150
   C    93.930  45.060  54.930
   H    82.690  45.280  56.800
   H    82.990  44.440  55.380
   H    82.780  43.550  56.870
   H    86.650  43.440  56.400
   H    85.480  43.680  55.090
   H    85.270  42.450  56.340
   H    83.700  44.190  60.800
   H    85.840  45.230  60.970
   H    85.150  46.860  60.900
   H    85.030  43.540  62.500
   H    84.290  44.010  64.040
   H    86.020  44.280  63.680
   H    85.570  46.910  64.550
   H    85.580  47.790  63.030
   H    86.710  46.520  63.330
   H    82.270  43.670  62.220
   H    81.660  44.350  63.630
   H    80.630  44.410  62.210
   H    81.480  47.920  62.320
   H    80.680  46.770  63.470
   H    80.310  46.700  61.830
   H    82.760  47.070  60.530
   H    81.850  45.580  60.100
   H    84.650  46.220  55.410
   H    84.490  46.710  57.080
   H    88.250  46.830  57.820
   H    87.310  45.520  58.230
   H    86.710  47.060  58.750
   H    88.240  44.420  53.590
   H    85.580  44.010  52.900
   H    85.870  45.350  51.870
   H    88.300  42.370  52.450
   H    86.500  41.780  52.360
   H    87.570  41.650  51.050
   H    85.310  44.180  49.900
   H    84.960  42.650  50.770
   H    86.090  42.630  49.540
   H    90.690  44.230  50.470
   H    91.060  45.460  51.590
   H    90.350  44.010  52.190
   H    89.740  46.190  49.090
   H    88.210  46.640  49.540
   H    89.600  47.350  50.310
   H    87.770  46.960  52.010
   H    89.170  46.460  52.910
   H    85.630  48.590  56.720
   H    85.850  48.030  55.090
   H    88.920  50.010  57.570
   H    87.200  50.480  57.890
   H    87.830  48.880  58.150
   H    84.740  51.810  54.840
   H    86.660  52.760  53.390
   H    87.130  53.590  54.960
   H    84.530  53.550  52.170
   H    86.010  54.480  51.680
   H    84.480  55.270  52.010
   H    87.110  55.900  53.100
   H    85.570  56.530  53.750
   H    86.830  55.920  54.900
   H    82.110  53.260  55.770
   H    82.100  54.810  56.260
   H    82.580  53.540  57.380
   H    85.570  55.840  56.680
   H    83.840  56.300  56.840
   H    84.450  55.220  57.930
   H    84.630  52.470  57.070
   H    86.040  53.540  56.920
   H    88.720  48.030  54.590
   H    89.380  48.120  56.210
   H    89.060  49.640  52.830
   H    90.440  50.620  52.870
   H    88.950  51.130  53.720
   H    90.870  52.980  57.330
   H    89.160  54.250  55.170
   H    90.880  53.950  54.870
   H    90.450  56.340  54.290
   H    90.350  57.600  55.380
   H    88.960  56.490  55.160
   H    92.470  54.580  56.670
   H    92.430  56.090  55.640
   H    92.280  56.200  57.390
   H    91.060  54.200  59.360
   H    90.410  55.520  60.090
   H    89.640  53.960  60.470
   H    87.090  54.360  59.180
   H    87.850  55.850  59.820
   H    87.280  55.830  58.290
   H    88.070  53.530  56.940
   H    88.710  52.490  58.240
   H    91.050  48.290  53.360
   H    91.970  49.730  53.870
   H    93.890  49.090  53.940
   H    93.480  47.470  53.270
   H    94.600  47.760  54.680
   H    92.610  48.260  58.880
   H    91.470  50.990  58.630
   H    93.070  50.370  58.310
   H    94.310  49.010  59.910
   H    94.590  49.720  61.380
   H    94.750  50.730  59.880
   H    93.010  51.880  62.000
   H    91.600  52.160  61.040
   H    93.270  52.430  60.370
   H    88.670  49.490  61.760
   H    89.410  50.810  60.860
   H    90.000  50.280  62.490
   H    89.510  47.150  61.650
   H    90.490  47.950  62.840
   H    91.340  47.000  61.640
   H    89.680  48.980  59.100
   H    90.210  47.550  59.310
   H    90.790  46.530  55.720
   H    91.300  46.180  54.140
   H    91.710  43.300  56.010
   H    90.640  44.200  55.240
   H    92.050  43.550  54.250
   H    94.010  45.670  59.470
   H    94.110  42.630  59.250
   H    92.600  43.350  59.570
   H    94.510  41.350  60.980
   H    92.860  41.620  61.560
   H    94.120  41.900  62.730
   H    93.040  44.060  63.270
   H    92.850  45.210  61.920
   H    91.960  43.880  61.820
   H    97.920  43.400  60.310
   H    98.210  45.170  60.060
   H    97.850  44.360  61.640
   H    96.610  46.850  60.640
   H    96.160  46.170  62.220
   H    94.950  46.520  60.960
   H    95.930  43.540  58.960
   H    96.200  45.210  58.450
   H    93.700  45.030  53.870
   H    94.700  45.740  55.300
   H    94.360  44.110  55.240
  