239
PTMA_CHAIN6_frame3
 C    60.620  42.110  35.520
   C    61.870  41.210  35.310
   C    61.390  40.290  34.070
   C    62.090  40.390  36.540
   O    61.970  39.120  36.530
   O    62.470  41.220  37.590
   C    62.170  40.840  38.930
   C    63.540  40.720  39.680
   C    63.290  40.180  41.110
   C    62.810  38.690  41.100
   C    64.710  40.130  41.770
   N    62.320  41.040  41.790
   O    62.270  41.030  43.020
   C    61.100  41.650  41.110
   C    59.830  40.750  41.260
   C    60.710  42.890  41.860
   C    61.330  41.920  39.580
   C    62.990  42.280  35.050
   C    64.490  41.910  34.890
   C    65.130  41.430  36.240
   C    64.610  40.830  33.740
   O    64.960  39.700  33.900
   O    64.220  41.310  32.570
   C    64.200  40.480  31.390
   C    63.100  41.030  30.400
   C    63.000  40.240  29.100
   C    62.100  39.030  29.430
   C    62.200  41.080  28.050
   N    64.370  39.840  28.550
   O    64.380  39.280  27.480
   C    65.640  39.770  29.370
   C    65.910  38.290  29.740
   C    66.830  40.280  28.500
   C    65.590  40.600  30.640
   C    65.260  43.210  34.390
   C    66.870  43.330  34.020
   C    67.610  43.950  35.230
   C    66.960  44.340  32.870
   O    67.040  44.070  31.690
   O    66.650  45.630  33.320
   C    67.040  46.750  32.540
   C    68.490  47.100  32.710
   C    68.970  48.400  32.030
   C    69.620  47.980  30.690
   C    70.120  49.080  32.760
   N    67.950  49.430  31.770
   O    68.170  50.460  31.190
   C    66.460  49.230  32.210
   C    65.570  49.230  30.920
   C    66.140  50.460  33.100
   C    66.240  47.930  33.100
   C    67.510  41.960  33.680
   C    69.080  41.760  33.480
   C    69.700  42.690  32.430
   C    69.850  41.860  34.870
   O    70.890  42.500  34.910
   O    69.340  41.170  35.960
   C    69.910  41.180  37.310
   C    70.090  42.580  37.820
   C    70.660  42.650  39.270
   C    70.460  44.120  39.710
   C    72.140  42.240  39.420
   N    69.870  41.730  40.220
   O    69.880  42.010  41.430
   C    69.040  40.570  39.720
   C    69.880  39.320  39.930
   C    67.680  40.510  40.410
   C    68.770  40.590  38.240
   C    69.280  40.310  32.720
   C    70.350  39.180  33.030
   C    71.750  39.790  32.940
   C    70.030  38.570  34.430
   O    70.850  38.790  35.360
   O    69.050  37.640  34.380
   C    68.430  37.190  35.550
   C    66.990  37.530  35.540
   C    66.020  36.840  36.560
   C    66.010  37.570  37.950
   C    64.520  36.990  36.150
   N    66.380  35.460  36.890
   O    65.500  34.700  37.290
   C    67.810  35.010  36.750
   C    67.860  33.500  36.600
   C    68.600  35.270  38.030
   C    68.470  35.690  35.500
   C    70.210  38.110  31.870
   C    71.270  37.000  31.630
   C    72.640  37.390  30.930
   C    70.480  35.990  30.700
   O    70.190  34.830  31.010
   O    70.300  36.470  29.480
   C    69.900  35.670  28.440
   C    68.580  36.220  27.790
   C    68.160  35.460  26.560
   C    67.050  36.270  25.790
   C    67.370  34.210  26.890
   N    69.300  35.220  25.580
   O    69.000  35.010  24.390
   C    70.690  35.050  26.110
   C    71.650  35.660  24.990
   C    70.950  33.530  26.230
   C    70.980  35.800  27.400
   C    71.650  36.280  33.000
   H    60.460  42.720  34.630
   H    59.690  41.570  35.660
   H    60.610  42.790  36.370
   H    60.500  39.810  34.490
   H    62.120  39.570  33.710
   H    61.050  40.970  33.280
   H    61.690  39.860  39.060
   H    64.200  40.050  39.130
   H    64.090  41.640  39.850
   H    62.900  38.330  42.130
   H    63.420  37.930  40.610
   H    61.800  38.630  40.700
   H    65.240  41.080  41.650
   H    65.300  39.350  41.280
   H    64.740  39.790  42.800
   H    59.930  40.050  42.090
   H    58.840  41.210  41.360
   H    59.680  40.110  40.390
   H    60.130  42.770  42.780
   H    60.260  43.570  41.140
   H    61.590  43.420  42.220
   H    61.840  42.880  39.530
   H    60.360  42.060  39.120
   H    62.760  42.860  34.160
   H    62.810  43.050  35.790
   H    64.720  40.520  36.680
   H    65.020  42.180  37.020
   H    66.210  41.320  36.110
   H    63.920  39.510  31.790
   H    62.210  41.190  31.000
   H    63.290  42.070  30.140
   H    61.930  38.420  28.540
   H    62.610  38.380  30.140
   H    61.130  39.250  29.870
   H    61.510  41.750  28.570
   H    61.740  40.380  27.350
   H    62.770  41.760  27.420
   H    65.230  37.840  30.470
   H    65.720  37.760  28.810
   H    66.950  38.050  29.920
   H    66.610  41.330  28.300
   H    67.760  40.350  29.060
   H    66.980  39.800  27.530
   H    65.690  41.670  30.420
   H    66.360  40.180  31.280
   H    65.250  43.950  35.190
   H    64.610  43.610  33.610
   H    67.110  44.860  35.550
   H    67.490  43.250  36.060
   H    68.630  44.240  35.010
   H    66.790  46.540  31.500
   H    69.110  46.280  32.340
   H    68.780  47.060  33.760
   H    68.880  47.740  29.930
   H    70.410  47.250  30.890
   H    70.040  48.810  30.130
   H    71.000  48.540  33.090
   H    70.560  49.920  32.220
   H    69.710  49.530  33.660
   H    65.930  50.000  30.230
   H    64.490  49.280  31.030
   H    65.860  48.360  30.330
   H    66.910  50.360  33.860
   H    66.130  51.470  32.700
   H    65.140  50.270  33.490
   H    65.180  47.690  33.110
   H    66.550  48.070  34.140
   H    67.110  41.810  32.680
   H    67.170  41.110  34.280
   H    70.680  42.380  32.080
   H    69.750  43.660  32.920
   H    69.130  42.650  31.500
   H    70.910  40.750  37.350
   H    69.160  43.150  37.880
   H    70.740  43.150  37.160
   H    69.390  44.250  39.870
   H    70.700  44.890  38.980
   H    71.060  44.390  40.580
   H    72.840  42.790  38.790
   H    72.510  42.450  40.430
   H    72.280  41.170  39.270
   H    69.800  39.140  41.000
   H    69.430  38.460  39.440
   H    70.900  39.270  39.530
   H    67.030  39.740  39.990
   H    67.750  40.460  41.500
   H    67.180  41.420  40.110
   H    67.890  41.210  38.090
   H    68.570  39.600  37.820
   H    68.340  39.800  32.910
   H    69.190  40.470  31.640
   H    72.550  39.100  33.220
   H    71.720  40.530  33.730
   H    72.030  40.180  31.960
   H    69.040  37.550  36.380
   H    66.620  37.450  34.520
   H    66.980  38.600  35.730
   H    65.530  38.540  37.800
   H    66.980  37.760  38.390
   H    65.590  36.910  38.710
   H    63.730  36.590  36.770
   H    64.380  36.480  35.190
   H    64.240  38.010  35.910
   H    67.340  33.200  35.690
   H    67.300  33.120  37.450
   H    68.810  32.980  36.420
   H    68.010  35.000  38.910
   H    68.950  36.300  38.020
   H    69.510  34.660  38.070
   H    68.010  35.330  34.570
   H    69.500  35.340  35.480
   H    69.210  37.690  31.950
   H    70.260  38.690  30.950
   H    73.250  36.490  31.000
   H    72.580  37.630  29.870
   H    73.260  38.150  31.420
   H    69.770  34.650  28.810
   H    68.860  37.230  27.500
   H    67.720  36.160  28.450
   H    66.670  35.860  24.860
   H    67.300  37.300  25.520
   H    66.090  36.300  26.310
   H    66.350  34.460  27.180
   H    67.350  33.500  26.070
   H    67.840  33.690  27.730
   H    71.650  34.890  24.220
   H    71.340  36.610  24.540
   H    72.690  35.800  25.310
   H    72.020  33.340  26.220
   H    70.490  33.120  25.330
   H    70.350  33.020  26.990
   H    71.230  36.840  27.200
   H    71.830  35.330  27.900
   H    72.140  36.850  33.790
   H    70.810  35.910  33.600
   H    72.220  35.400  32.710
  