239
PTMA_CHAIN2_time4
 C    -14.690  15.300  66.220
   C    -13.300  15.940  66.470
   C    -13.000  17.020  65.380
   C    -12.230  14.800  66.200
   O    -11.180  15.070  65.630
   O    -12.560  13.560  66.660
   C    -11.850  12.400  66.320
   C    -11.970  11.450  67.560
   C    -11.210  10.200  67.250
   C    -9.730  10.210  67.610
   C    -11.910  8.960  67.810
   N    -11.200  9.900  65.760
   H    -10.460  9.190  65.390
   C    -11.980  10.600  64.770
   C    -11.090  10.920  63.610
   C    -13.130  9.700  64.250
   C    -12.740  11.810  65.250
   C    -13.120  16.520  67.900
   C    -13.010  15.750  69.200
   C    -14.000  14.490  69.290
   C    -11.590  15.230  69.500
   O    -11.460  14.390  70.400
   O    -10.630  15.660  68.670
   C    -9.250  15.270  68.870
   C    -8.840  13.830  68.570
   C    -7.410  13.650  68.010
   C    -6.710  12.370  68.490
   C    -7.280  13.490  66.430
   N    -6.620  14.820  68.440
   H    -5.610  14.580  68.790
   C    -7.120  16.230  68.330
   C    -6.800  16.870  69.730
   C    -6.250  16.920  67.310
   C    -8.560  16.190  67.940
   C    -13.530  16.560  70.430
   C    -12.870  17.790  71.090
   C    -13.830  18.250  72.180
   C    -12.850  18.900  70.100
   O    -11.850  19.130  69.450
   O    -13.990  19.540  70.010
   C    -14.050  20.750  69.240
   C    -15.220  21.590  69.760
   C    -15.460  22.860  69.120
   C    -14.700  23.910  69.880
   C    -16.970  23.270  69.170
   N    -15.010  22.910  67.730
   H    -15.430  23.740  67.170
   C    -14.120  21.970  67.020
   C    -12.680  22.560  66.850
   C    -14.770  21.760  65.690
   C    -14.100  20.560  67.750
   C    -11.390  17.530  71.680
   C    -10.650  18.400  72.820
   C    -10.480  19.840  72.380
   C    -11.340  18.420  74.200
   O    -11.250  19.370  74.910
   O    -11.850  17.320  74.530
   C    -12.550  17.140  75.820
   C    -13.980  17.600  75.770
   C    -14.700  17.390  77.090
   C    -16.190  17.340  76.820
   C    -14.370  18.390  78.180
   N    -14.410  16.060  77.620
   H    -15.210  15.640  78.230
   C    -13.130  15.290  77.370
   C    -12.240  15.510  78.650
   C    -13.470  13.770  77.490
   C    -12.470  15.670  76.130
   C    -9.180  17.810  72.980
   C    -8.270  17.380  74.210
   C    -8.060  18.620  75.130
   C    -8.840  16.120  74.930
   O    -8.990  16.060  76.100
   O    -8.900  15.070  74.070
   C    -9.620  13.860  74.360
   C    -10.590  13.610  73.200
   C    -11.220  12.260  73.180
   C    -12.700  12.370  73.430
   C    -11.110  11.470  71.870
   N    -10.640  11.390  74.270
   H    -11.290  10.800  74.910
   C    -9.240  11.460  74.730
   C    -8.520  10.250  74.100
   C    -9.020  11.390  76.240
   C    -8.610  12.750  74.250
   C    -6.910  16.940  73.470
   C    -5.640  16.300  74.180
   C    -5.640  14.750  74.050
   C    -5.410  16.720  75.670
   O    -5.990  16.070  76.570
   O    -4.240  17.420  75.890
   C    -3.590  17.330  77.120
   C    -2.580  16.220  76.910
   C    -1.620  15.920  78.110
   C    -0.370  15.250  77.400
   C    -2.280  15.020  79.130
   N    -1.170  17.210  78.770
   O    -0.200  17.100  79.570
   C    -1.890  18.540  78.630
   C    -0.860  19.700  78.310
   C    -2.530  18.860  79.980
   C    -2.940  18.570  77.510
   C    -4.450  16.680  73.240
   H    -14.770  14.950  65.190
   H    -14.890  14.450  66.860
   H    -15.450  16.070  66.360
   H    -13.560  17.920  65.630
   H    -13.300  16.700  64.390
   H    -11.930  17.210  65.380
   H    -10.790  12.580  66.160
   H    -11.510  11.970  68.400
   H    -12.990  11.330  67.910
   H    -9.310  9.270  67.240
   H    -9.620  10.420  68.670
   H    -9.160  10.950  67.060
   H    -12.990  8.880  67.620
   H    -11.940  8.960  68.890
   H    -11.390  8.050  67.510
   H    -10.450  10.090  63.340
   H    -11.610  11.200  62.690
   H    -10.400  11.730  63.850
   H    -13.640  9.160  65.050
   H    -12.780  8.830  63.690
   H    -13.920  10.220  63.720
   H    -13.690  11.530  65.710
   H    -12.920  12.590  64.510
   H    -12.190  17.090  67.920
   H    -13.890  17.280  67.980
   H    -15.000  14.900  69.160
   H    -14.090  13.870  70.190
   H    -13.760  13.750  68.530
   H    -8.950  15.550  69.880
   H    -9.010  13.300  69.500
   H    -9.470  13.420  67.790
   H    -7.030  11.490  67.920
   H    -5.650  12.350  68.230
   H    -6.930  12.190  69.550
   H    -6.510  12.780  66.110
   H    -6.930  14.390  65.930
   H    -8.210  13.210  65.940
   H    -7.250  17.850  69.870
   H    -7.280  16.300  70.520
   H    -5.730  16.930  69.940
   H    -6.190  16.500  66.300
   H    -6.450  17.990  67.420
   H    -5.220  16.910  67.650
   H    -8.720  15.980  66.890
   H    -8.890  17.220  68.070
   H    -13.700  15.820  71.200
   H    -14.500  16.950  70.130
   H    -13.680  17.660  73.090
   H    -13.640  19.280  72.500
   H    -14.870  18.310  71.840
   H    -13.070  21.210  69.370
   H    -15.050  21.780  70.820
   H    -16.120  20.990  69.810
   H    -15.050  24.120  70.900
   H    -14.650  24.880  69.400
   H    -13.700  23.550  70.110
   H    -17.600  22.620  68.560
   H    -17.430  23.300  70.160
   H    -17.060  24.250  68.700
   H    -12.720  23.520  66.350
   H    -12.060  21.910  66.240
   H    -12.180  22.640  67.820
   H    -14.250  20.970  65.130
   H    -15.800  21.420  65.830
   H    -14.800  22.620  65.020
   H    -13.230  20.100  67.300
   H    -14.870  19.840  67.460
   H    -10.630  17.460  70.900
   H    -11.410  16.540  72.130
   H    -9.880  20.240  73.190
   H    -11.450  20.350  72.370
   H    -10.020  19.910  71.390
   H    -11.940  17.710  76.500
   H    -14.480  16.950  75.060
   H    -14.230  18.580  75.360
   H    -16.750  17.470  77.740
   H    -16.380  16.480  76.170
   H    -16.580  18.230  76.320
   H    -14.760  18.120  79.170
   H    -13.300  18.510  78.330
   H    -14.700  19.400  77.940
   H    -11.860  16.520  78.770
   H    -12.820  15.340  79.560
   H    -11.330  14.900  78.690
   H    -13.890  13.530  78.460
   H    -14.250  13.540  76.760
   H    -12.650  13.070  77.330
   H    -12.890  15.050  75.340
   H    -11.430  15.370  76.250
   H    -9.320  16.850  72.480
   H    -8.590  18.420  72.300
   H    -8.940  19.180  75.460
   H    -7.500  19.440  74.690
   H    -7.560  18.300  76.050
   H    -10.180  13.860  75.300
   H    -9.960  13.790  72.330
   H    -11.380  14.360  73.310
   H    -13.210  11.430  73.220
   H    -13.140  12.950  72.620
   H    -12.960  12.820  74.390
   H    -11.480  12.050  71.020
   H    -11.600  10.500  71.900
   H    -10.030  11.370  71.770
   H    -8.680  9.260  74.530
   H    -7.460  10.390  74.330
   H    -8.610  10.220  73.020
   H    -9.690  10.640  76.680
   H    -9.190  12.320  76.780
   H    -8.020  11.040  76.490
   H    -8.260  12.740  73.220
   H    -7.720  12.930  74.850
   H    -7.160  16.380  72.570
   H    -6.610  17.820  72.920
   H    -5.980  14.420  73.060
   H    -4.630  14.350  74.070
   H    -6.270  14.210  74.770
   H    -4.320  17.010  77.870
   H    -2.070  16.270  75.940
   H    -3.150  15.300  76.780
   H    0.300  14.940  78.200
   H    0.210  15.890  76.730
   H    -0.570  14.340  76.820
   H    -1.680  15.030  80.040
   H    -3.290  15.340  79.390
   H    -2.280  14.020  78.700
   H    0.090  19.480  78.800
   H    -0.650  19.740  77.240
   H    -1.190  20.670  78.700
   H    -3.060  18.050  80.470
   H    -3.120  19.770  79.890
   H    -1.850  19.080  80.810
   H    -2.590  19.020  76.580
   H    -3.750  19.270  77.750
   H    -4.540  16.270  72.230
   H    -4.280  17.760  73.170
   H    -3.510  16.370  73.700
  