239
PTMA_CHAIN2_time12
 C    69.970  8.120  67.060
   C    70.780  9.240  67.680
   C    71.230  10.160  66.480
   C    72.040  8.580  68.410
   O    73.240  8.950  68.300
   O    71.640  7.640  69.230
   C    72.490  6.880  70.070
   C    73.230  7.630  71.220
   C    74.010  6.650  72.150
   C    75.510  6.830  71.980
   C    73.650  6.900  73.530
   N    73.650  5.220  71.830
   H    74.240  4.420  72.270
   C    72.310  4.750  71.370
   C    72.500  3.420  70.560
   C    71.490  4.320  72.660
   C    71.570  5.940  70.650
   C    69.800  10.070  68.640
   C    70.330  11.130  69.690
   C    71.110  10.430  70.780
   C    71.280  12.240  69.090
   O    72.340  12.490  69.710
   O    70.970  12.680  67.910
   C    71.760  13.750  67.350
   C    73.040  13.350  66.730
   C    73.990  14.540  66.500
   C    74.920  14.650  67.690
   C    74.950  14.260  65.320
   N    73.230  15.790  66.310
   O    73.790  16.830  66.210
   C    71.770  15.830  65.950
   C    71.110  17.100  66.700
   C    71.550  16.090  64.420
   C    71.000  14.530  66.290
   C    69.040  11.800  70.400
   C    68.910  13.190  71.090
   C    67.560  13.120  71.820
   C    68.910  14.270  69.940
   O    69.890  14.970  69.700
   O    67.700  14.300  69.360
   C    67.250  15.330  68.350
   C    66.840  16.710  68.930
   C    66.510  17.710  67.830
   C    67.580  18.840  67.860
   C    65.270  18.470  68.120
   N    66.400  17.090  66.490
   H    66.860  17.630  65.670
   C    66.030  15.650  66.170
   C    67.090  15.240  65.130
   C    64.670  15.600  65.520
   C    66.140  14.820  67.460
   C    70.120  13.440  72.170
   C    70.110  14.590  73.190
   C    69.650  15.870  72.530
   C    69.280  14.340  74.480
   O    68.740  13.270  74.640
   O    69.380  15.340  75.300
   C    68.450  15.430  76.400
   C    69.090  14.910  77.700
   C    68.010  14.820  78.770
   C    68.670  14.540  80.100
   C    67.150  13.610  78.380
   N    67.120  16.040  78.930
   O    66.510  16.230  80.010
   C    66.820  16.900  77.730
   C    65.470  16.570  77.120
   C    66.760  18.400  78.120
   C    67.930  16.880  76.700
   C    71.580  15.000  73.670
   C    72.680  14.120  74.160
   C    73.800  14.990  74.860
   C    72.120  13.120  75.150
   O    72.060  13.420  76.310
   O    71.570  11.970  74.630
   C    70.760  11.030  75.330
   C    69.880  10.350  74.400
   C    69.190  9.130  74.980
   C    67.660  9.280  74.980
   C    69.410  7.950  73.980
   N    69.680  8.730  76.330
   H    69.030  8.060  76.890
   C    71.040  8.940  76.790
   C    71.700  7.530  76.870
   C    70.900  9.360  78.210
   C    71.720  9.950  75.890
   C    73.300  13.290  72.930
   C    74.590  12.480  72.990
   C    74.640  11.370  74.150
   C    75.790  13.450  73.060
   O    76.580  13.430  74.020
   O    76.040  14.070  71.850
   C    77.220  14.860  71.690
   C    77.740  14.470  70.280
   C    79.180  15.080  70.100
   C    79.380  15.150  68.620
   C    80.280  14.270  70.830
   N    79.290  16.480  70.600
   O    80.420  16.930  70.800
   C    78.080  17.250  71.090
   C    77.510  18.150  69.990
   C    78.450  18.010  72.310
   C    76.930  16.290  71.570
   C    74.700  11.680  71.790
   H    69.770  7.320  67.770
   H    68.940  8.440  66.880
   H    70.370  7.690  66.150
   H    71.670  9.630  65.640
   H    71.960  10.820  66.930
   H    70.430  10.800  66.110
   H    73.090  6.340  69.340
   H    73.930  8.430  71.000
   H    72.370  8.050  71.730
   H    76.070  6.680  71.060
   H    75.930  6.100  72.670
   H    75.840  7.800  72.370
   H    72.560  6.870  73.640
   H    73.840  7.920  73.880
   H    74.140  6.070  74.010
   H    73.170  3.550  69.710
   H    72.890  2.610  71.170
   H    71.640  3.090  69.980
   H    71.100  5.200  73.180
   H    72.120  3.790  73.370
   H    70.630  3.730  72.330
   H    70.750  6.420  71.190
   H    71.020  5.520  69.800
   H    69.090  10.630  68.030
   H    69.190  9.370  69.200
   H    72.150  10.210  70.530
   H    70.620  9.490  71.050
   H    71.120  11.080  71.650
   H    71.940  14.450  68.170
   H    73.540  12.550  67.270
   H    72.900  12.840  65.780
   H    74.410  14.880  68.630
   H    75.510  13.750  67.870
   H    75.640  15.470  67.610
   H    75.330  13.240  65.340
   H    75.810  14.920  65.340
   H    74.470  14.510  64.370
   H    71.730  18.000  66.670
   H    70.130  17.250  66.260
   H    70.990  17.010  67.780
   H    70.470  16.060  64.270
   H    71.990  17.000  64.020
   H    72.100  15.310  63.900
   H    70.800  13.890  65.430
   H    70.010  14.760  66.670
   H    68.770  11.110  71.210
   H    68.160  11.590  69.780
   H    67.460  13.980  72.490
   H    66.660  13.030  71.220
   H    67.530  12.220  72.440
   H    68.140  15.500  67.740
   H    67.700  16.950  69.550
   H    65.950  16.620  69.560
   H    67.290  19.650  67.190
   H    68.520  18.410  67.520
   H    67.690  19.220  68.870
   H    64.520  17.690  68.200
   H    65.310  18.910  69.110
   H    64.910  19.140  67.340
   H    66.940  15.890  64.280
   H    66.780  14.230  64.860
   H    68.120  15.210  65.490
   H    64.500  14.560  65.250
   H    63.890  16.000  66.160
   H    64.770  16.250  64.640
   H    66.340  13.840  67.020
   H    65.220  14.810  68.040
   H    71.030  13.660  71.610
   H    70.240  12.520  72.750
   H    68.610  15.840  72.190
   H    70.330  16.200  71.740
   H    69.750  16.790  73.110
   H    67.560  14.880  76.130
   H    69.870  15.610  77.990
   H    69.600  13.970  77.510
   H    69.190  15.450  80.400
   H    69.400  13.730  80.020
   H    67.890  14.220  80.790
   H    67.820  12.760  78.500
   H    66.280  13.480  79.020
   H    66.870  13.560  77.330
   H    65.240  17.300  76.340
   H    65.490  15.560  76.710
   H    64.670  16.720  77.840
   H    66.740  18.970  77.190
   H    65.950  18.640  78.810
   H    67.660  18.680  78.670
   H    68.740  17.470  77.130
   H    67.620  17.410  75.800
   H    72.070  15.520  72.840
   H    71.440  15.760  74.440
   H    74.510  14.220  75.160
   H    73.430  15.610  75.680
   H    74.220  15.540  74.020
   H    70.200  11.460  76.160
   H    70.470  10.030  73.540
   H    69.080  11.030  74.090
   H    67.310  9.990  75.730
   H    67.170  8.310  75.120
   H    67.320  9.730  74.050
   H    68.880  8.250  73.070
   H    68.950  7.010  74.280
   H    70.460  7.750  73.770
   H    72.770  7.570  77.110
   H    71.770  7.150  75.850
   H    71.210  6.900  77.610
   H    70.320  10.280  78.200
   H    71.920  9.520  78.570
   H    70.370  8.730  78.920
   H    72.300  9.460  75.110
   H    72.480  10.480  76.450
   H    72.550  12.610  72.520
   H    73.480  13.970  72.110
   H    75.630  11.010  74.410
   H    74.320  11.820  75.090
   H    73.990  10.530  73.920
   H    77.930  14.610  72.480
   H    77.090  14.940  69.540
   H    77.820  13.400  70.070
   H    78.880  15.960  68.080
   H    79.150  14.200  68.130
   H    80.430  15.290  68.370
   H    80.230  13.230  70.480
   H    81.270  14.710  70.710
   H    80.230  14.350  71.910
   H    77.820  17.720  69.030
   H    76.420  18.290  69.970
   H    77.990  19.120  69.890
   H    79.140  18.800  72.030
   H    78.850  17.410  73.120
   H    77.670  18.690  72.650
   H    76.230  16.370  70.730
   H    76.460  16.590  72.510
   H    75.690  11.240  71.800
   H    73.890  10.940  71.770
   H    74.690  12.310  70.900
  