239
PTMA_CHAIN2_time16
 C    69.970  13.050  67.620
   C    70.570  13.950  68.680
   C    71.970  14.070  68.230
   C    70.450  13.190  70.070
   O    71.480  12.920  70.730
   O    69.140  12.960  70.440
   C    68.990  12.430  71.720
   C    69.410  13.350  72.840
   C    69.440  12.640  74.180
   C    70.490  11.540  74.310
   C    69.650  13.650  75.320
   N    68.060  12.190  74.320
   H    67.650  12.190  75.330
   C    67.260  11.460  73.270
   C    67.640  10.000  73.310
   C    65.760  11.670  73.550
   C    67.510  12.030  71.820
   C    69.700  15.240  68.660
   C    69.950  16.480  69.570
   C    69.570  16.060  71.050
   C    71.360  17.140  69.390
   O    71.990  17.430  70.350
   O    71.910  17.070  68.110
   C    73.060  17.850  67.870
   C    74.290  16.930  67.930
   C    75.630  17.720  67.810
   C    76.060  18.440  69.150
   C    76.650  16.650  67.420
   N    75.480  18.770  66.650
   O    76.540  19.130  66.160
   C    74.130  19.250  66.060
   C    73.850  20.700  66.480
   C    74.230  19.430  64.460
   C    72.960  18.260  66.450
   C    68.830  17.530  69.220
   C    68.870  19.060  69.480
   C    67.320  19.390  69.400
   C    69.620  19.590  68.240
   O    70.840  19.930  68.320
   O    68.830  19.640  67.170
   C    69.380  19.810  65.860
   C    68.640  21.010  65.220
   C    69.130  21.360  63.820
   C    70.260  22.380  63.700
   C    67.940  21.850  62.980
   N    69.620  20.110  63.190
   H    70.410  20.140  62.430
   C    69.170  18.720  63.620
   C    70.260  17.740  63.170
   C    67.930  18.350  62.920
   C    69.020  18.560  65.090
   C    69.510  19.540  70.800
   C    69.500  20.960  71.390
   C    69.540  22.030  70.270
   C    68.220  21.320  72.130
   O    67.290  20.620  72.240
   O    68.300  22.590  72.640
   C    67.150  23.220  73.160
   C    66.690  22.740  74.560
   C    65.340  23.370  74.940
   C    65.260  23.530  76.450
   C    64.180  22.340  74.430
   N    65.090  24.760  74.360
   O    63.950  25.260  74.400
   C    66.240  25.500  73.640
   C    65.800  25.990  72.250
   C    66.560  26.730  74.580
   C    67.470  24.670  73.370
   C    70.770  21.210  72.330
   C    71.090  20.330  73.630
   C    72.040  21.120  74.420
   C    69.820  20.020  74.470
   O    69.420  20.750  75.400
   O    69.190  18.880  74.100
   C    67.870  18.650  74.570
   C    67.230  17.530  73.740
   C    65.740  17.350  74.200
   C    64.950  18.430  73.480
   C    65.190  15.970  73.810
   N    65.560  17.400  75.640
   H    64.570  17.210  76.070
   C    66.610  17.760  76.630
   C    66.730  16.620  77.590
   C    66.070  19.010  77.380
   C    67.980  18.040  75.940
   C    71.770  18.960  73.270
   C    72.470  18.020  74.300
   C    71.660  17.690  75.640
   C    73.940  18.400  74.720
   O    74.360  18.340  75.860
   O    74.580  19.120  73.740
   C    75.930  19.490  73.970
   C    76.900  18.520  73.260
   C    78.390  18.940  73.160
   C    79.000  18.080  72.000
   C    79.270  18.810  74.460
   N    78.560  20.430  72.820
   O    79.700  20.840  72.550
   C    77.450  21.400  73.180
   C    77.490  22.490  72.090
   C    77.720  22.130  74.480
   C    76.050  20.800  73.190
   C    72.600  16.650  73.560
   H    70.630  12.280  67.220
   H    69.070  12.540  67.980
   H    69.580  13.580  66.750
   H    72.550  14.610  68.980
   H    72.080  14.600  67.280
   H    72.390  13.070  68.120
   H    69.660  11.570  71.800
   H    70.450  13.660  72.680
   H    68.830  14.260  72.930
   H    70.740  11.210  75.320
   H    71.410  11.860  73.810
   H    70.160  10.620  73.820
   H    70.550  14.260  75.280
   H    69.730  13.120  76.270
   H    68.850  14.380  75.380
   H    67.750  9.680  74.340
   H    66.890  9.350  72.840
   H    68.530  9.730  72.740
   H    65.080  11.660  72.690
   H    65.600  12.610  74.080
   H    65.310  10.930  74.210
   H    66.930  12.910  71.550
   H    67.250  11.260  71.100
   H    69.740  15.490  67.590
   H    68.660  14.950  68.770
   H    68.680  15.440  71.040
   H    69.320  16.830  71.780
   H    70.400  15.460  71.420
   H    73.170  18.680  68.570
   H    74.300  16.510  68.930
   H    74.140  16.100  67.230
   H    76.170  17.660  69.900
   H    77.010  18.980  69.080
   H    75.360  19.200  69.480
   H    76.480  16.530  66.350
   H    76.420  15.760  68.000
   H    77.670  17.040  67.520
   H    74.820  21.210  66.490
   H    73.130  21.210  65.850
   H    73.420  20.750  67.480
   H    75.170  19.950  64.250
   H    74.230  18.420  64.040
   H    73.320  19.910  64.120
   H    73.050  17.340  65.870
   H    71.980  18.630  66.170
   H    67.900  17.200  69.680
   H    68.550  17.360  68.180
   H    67.180  20.460  69.530
   H    66.890  19.160  68.430
   H    66.760  18.840  70.160
   H    70.400  20.180  65.890
   H    68.800  21.840  65.900
   H    67.550  20.970  65.300
   H    71.230  21.990  64.030
   H    69.960  23.250  64.290
   H    70.380  22.670  62.660
   H    67.940  21.390  61.990
   H    66.940  21.640  63.370
   H    68.020  22.910  62.790
   H    71.160  17.930  63.750
   H    70.610  17.780  62.140
   H    69.860  16.730  63.290
   H    68.030  18.500  61.850
   H    67.730  17.290  63.100
   H    67.030  18.860  63.260
   H    69.650  17.790  65.550
   H    68.000  18.230  65.270
   H    70.560  19.260  70.790
   H    69.040  18.910  71.560
   H    69.560  23.040  70.680
   H    68.720  22.020  69.560
   H    70.480  21.910  69.730
   H    66.400  23.050  72.390
   H    67.470  22.920  75.300
   H    66.490  21.670  74.580
   H    65.530  22.700  77.110
   H    64.220  23.780  76.660
   H    65.960  24.330  76.650
   H    64.450  21.930  73.460
   H    63.990  21.470  75.050
   H    63.230  22.860  74.320
   H    66.530  26.670  71.820
   H    65.450  25.110  71.710
   H    64.900  26.610  72.370
   H    65.670  27.110  75.080
   H    67.250  26.460  75.380
   H    67.020  27.520  73.990
   H    68.230  24.680  74.140
   H    68.150  25.040  72.600
   H    71.640  21.310  71.680
   H    70.630  22.240  72.670
   H    72.190  20.710  75.420
   H    71.670  22.130  74.570
   H    73.010  21.330  73.970
   H    67.340  19.600  74.650
   H    67.700  16.550  73.860
   H    67.230  17.800  72.690
   H    65.430  19.410  73.430
   H    63.970  18.650  73.900
   H    64.850  18.270  72.400
   H    65.320  15.240  74.620
   H    65.690  15.670  72.890
   H    64.120  15.880  73.600
   H    67.180  16.870  78.550
   H    67.440  15.950  77.110
   H    65.830  16.050  77.810
   H    65.750  19.790  76.690
   H    66.870  19.320  78.060
   H    65.210  18.670  77.950
   H    68.510  17.090  75.850
   H    68.570  18.660  76.620
   H    71.080  18.300  72.760
   H    72.510  19.130  72.490
   H    72.220  16.980  76.240
   H    71.520  18.540  76.310
   H    70.670  17.350  75.330
   H    76.250  19.670  75.000
   H    76.400  18.390  72.300
   H    76.880  17.560  73.770
   H    79.140  17.030  72.220
   H    80.000  18.420  71.720
   H    78.330  18.160  71.140
   H    78.960  19.560  75.190
   H    79.090  17.870  74.970
   H    80.320  19.040  74.300
   H    78.450  23.010  72.130
   H    77.490  22.050  71.090
   H    76.630  23.160  72.060
   H    77.310  21.580  75.320
   H    77.150  23.060  74.460
   H    78.790  22.230  74.630
   H    75.780  20.590  72.160
   H    75.360  21.550  73.570
   H    73.100  15.860  74.120
   H    71.610  16.280  73.310
   H    73.090  16.920  72.620
  