239
PTMA_CHAIN2_time2
 C    73.390  12.860  77.340
   C    72.800  13.900  76.380
   C    74.050  14.600  75.750
   C    72.150  14.920  77.370
   O    72.440  16.130  77.350
   O    71.160  14.460  78.030
   C    70.440  15.250  78.940
   C    69.290  16.090  78.230
   C    68.650  17.030  79.300
   C    69.520  18.330  79.340
   C    67.120  17.410  79.040
   N    68.850  16.560  80.690
   H    68.870  17.270  81.520
   C    68.980  15.120  81.020
   C    69.680  15.070  82.430
   C    67.610  14.490  81.260
   C    69.830  14.360  80.020
   C    71.760  13.340  75.300
   C    70.940  14.090  74.220
   C    69.820  14.880  74.980
   C    71.790  14.980  73.400
   O    71.330  16.040  73.110
   O    72.980  14.440  73.180
   C    73.790  15.020  72.150
   C    74.830  15.990  72.670
   C    75.530  16.710  71.540
   C    74.670  17.840  70.870
   C    76.820  17.400  72.120
   N    76.030  15.800  70.450
   O    76.770  16.290  69.560
   C    75.310  14.550  70.120
   C    74.340  14.750  68.940
   C    76.440  13.590  69.710
   C    74.510  13.930  71.390
   C    70.220  13.010  73.330
   C    69.490  13.250  71.910
   C    68.570  12.010  71.680
   C    70.620  13.120  70.820
   O    71.230  14.110  70.390
   O    70.720  11.890  70.250
   C    71.610  11.610  69.140
   C    70.820  11.880  67.890
   C    71.640  11.530  66.610
   C    72.610  12.710  66.310
   C    70.730  11.310  65.360
   N    72.510  10.360  66.790
   H    73.010  9.990  65.890
   C    72.970  9.760  68.070
   C    74.340  10.230  68.470
   C    73.030  8.230  67.960
   C    71.920  10.120  69.200
   C    68.670  14.590  71.730
   C    67.750  15.000  70.530
   C    68.320  14.500  69.150
   C    66.350  14.290  70.710
   O    66.070  13.550  71.660
   O    65.520  14.440  69.560
   C    64.190  13.880  69.560
   C    63.280  14.730  70.400
   C    61.880  14.290  70.390
   C    61.010  15.380  70.970
   C    61.660  13.050  71.330
   N    61.370  13.760  69.080
   O    60.170  13.510  69.020
   C    62.330  13.470  67.910
   C    62.290  12.010  67.520
   C    61.720  14.350  66.760
   C    63.750  13.970  68.110
   C    67.640  16.520  70.370
   C    67.250  17.500  71.540
   C    66.730  18.830  70.850
   C    65.900  17.040  72.250
   O    64.810  17.150  71.750
   O    66.180  16.200  73.270
   C    65.070  15.850  74.150
   C    65.660  14.790  75.020
   C    64.540  14.090  75.930
   C    64.070  12.750  75.360
   C    65.270  13.740  77.300
   N    63.420  14.980  76.120
   H    62.560  14.620  76.680
   C    63.510  16.470  75.990
   C    63.740  17.070  77.340
   C    62.090  16.930  75.310
   C    64.600  16.930  75.050
   C    68.430  17.820  72.510
   C    68.500  19.000  73.540
   C    68.670  20.400  72.860
   C    69.750  18.760  74.430
   O    69.580  18.470  75.650
   O    70.900  19.270  73.910
   C    71.890  19.730  74.760
   C    73.180  19.850  73.940
   C    74.320  20.570  74.660
   C    75.420  20.960  73.720
   C    74.950  19.590  75.670
   N    73.930  21.780  75.490
   O    74.720  22.570  75.960
   C    72.470  21.930  75.980
   C    72.060  23.410  76.030
   C    72.360  21.560  77.460
   C    71.450  21.190  75.050
   C    67.300  19.160  74.480
   H    72.640  12.480  78.040
   H    73.830  12.060  76.750
   H    74.220  13.300  77.890
   H    73.920  15.480  75.120
   H    74.650  13.920  75.150
   H    74.750  14.890  76.530
   H    71.150  15.900  79.440
   H    69.710  16.670  77.410
   H    68.550  15.420  77.800
   H    70.570  18.150  79.580
   H    69.140  19.030  80.090
   H    69.520  18.870  78.400
   H    66.390  16.600  79.120
   H    67.000  17.760  78.020
   H    66.800  18.170  79.750
   H    70.130  14.090  82.600
   H    70.430  15.860  82.530
   H    68.900  15.160  83.180
   H    66.840  14.690  80.510
   H    67.050  14.920  82.090
   H    67.680  13.420  81.450
   H    69.130  13.700  79.520
   H    70.560  13.690  80.480
   H    72.300  12.580  74.740
   H    71.060  12.760  75.900
   H    69.640  14.310  75.890
   H    68.810  14.950  74.590
   H    70.040  15.870  75.380
   H    73.220  15.660  71.470
   H    74.390  16.690  73.390
   H    75.520  15.470  73.340
   H    75.230  18.220  70.010
   H    73.820  17.570  70.250
   H    74.400  18.620  71.570
   H    77.680  16.740  72.270
   H    76.610  17.950  73.040
   H    77.210  18.110  71.400
   H    74.600  14.090  68.120
   H    73.320  14.440  69.200
   H    74.280  15.810  68.680
   H    76.970  13.780  68.780
   H    77.180  13.530  70.510
   H    76.140  12.540  69.690
   H    75.210  13.510  72.110
   H    73.900  13.060  71.140
   H    69.410  12.580  73.920
   H    70.840  12.150  73.090
   H    68.240  11.860  70.650
   H    69.160  11.100  71.790
   H    67.750  11.990  72.400
   H    72.480  12.260  69.180
   H    70.310  12.840  67.930
   H    69.960  11.210  67.780
   H    73.280  12.950  67.130
   H    71.850  13.490  66.220
   H    73.290  12.640  65.460
   H    69.890  10.640  65.560
   H    70.330  12.220  64.910
   H    71.250  10.680  64.640
   H    74.730  9.650  69.310
   H    74.370  11.310  68.630
   H    75.080  10.060  67.690
   H    73.940  7.840  67.520
   H    72.900  7.760  68.940
   H    72.180  7.890  67.370
   H    72.290  9.860  70.190
   H    71.040  9.470  69.120
   H    69.480  15.320  71.710
   H    68.210  14.730  72.710
   H    68.400  13.420  69.090
   H    69.320  14.890  68.970
   H    67.670  14.710  68.290
   H    64.200  12.840  69.880
   H    63.490  15.730  70.020
   H    63.670  14.760  71.420
   H    61.240  15.720  71.980
   H    59.930  15.240  71.080
   H    61.150  16.260  70.330
   H    62.050  13.300  72.320
   H    60.600  12.810  71.380
   H    62.100  12.120  70.950
   H    62.530  11.380  68.380
   H    61.360  11.600  67.140
   H    63.040  11.760  66.770
   H    60.710  13.960  66.650
   H    61.570  15.400  67.010
   H    62.200  14.280  65.790
   H    63.760  15.010  67.760
   H    64.490  13.460  67.480
   H    68.610  16.810  69.980
   H    67.110  16.590  69.420
   H    67.520  19.340  70.310
   H    66.250  19.480  71.590
   H    65.850  18.780  70.200
   H    64.250  15.360  73.620
   H    66.420  15.180  75.690
   H    66.140  14.020  74.420
   H    63.620  13.000  74.400
   H    63.380  12.170  75.970
   H    64.900  12.080  75.140
   H    64.490  13.300  77.920
   H    65.590  14.590  77.890
   H    66.040  12.970  77.190
   H    64.150  18.080  77.370
   H    64.430  16.410  77.870
   H    62.930  17.040  78.060
   H    61.860  16.350  74.410
   H    62.200  17.970  75.000
   H    61.230  16.850  75.970
   H    65.440  17.290  75.630
   H    64.370  17.790  74.410
   H    68.630  16.920  73.090
   H    69.280  17.990  71.850
   H    68.900  21.260  73.500
   H    69.450  20.450  72.090
   H    67.710  20.780  72.500
   H    71.870  19.210  75.720
   H    73.080  20.400  73.000
   H    73.360  18.810  73.660
   H    76.220  21.470  74.270
   H    75.080  21.740  73.040
   H    75.810  20.140  73.130
   H    75.200  18.660  75.170
   H    75.770  20.020  76.250
   H    74.320  19.370  76.530
   H    72.770  23.970  76.640
   H    72.250  23.760  75.010
   H    71.040  23.640  76.340
   H    72.970  22.230  78.060
   H    72.680  20.530  77.640
   H    71.310  21.590  77.750
   H    71.230  21.750  74.140
   H    70.520  21.070  75.600
   H    67.300  20.000  75.170
   H    66.400  19.250  73.860
   H    67.090  18.250  75.040
  