239
PTMA_CHAIN5_time18
 C    74.690  62.860  56.510
   C    75.830  63.350  55.640
   C    75.910  64.880  55.850
   C    75.440  62.990  54.090
   O    75.500  63.820  53.180
   O    75.200  61.620  54.020
   C    74.780  61.150  52.760
   C    75.930  60.330  52.230
   C    75.530  59.500  51.020
   C    76.150  60.050  49.700
   C    75.970  58.050  51.250
   N    74.030  59.460  50.790
   H    73.670  59.020  49.860
   C    72.970  59.660  51.810
   C    71.920  60.630  51.230
   C    72.250  58.360  52.080
   C    73.640  60.190  53.120
   C    77.180  62.690  56.170
   C    78.570  63.130  55.640
   C    78.560  63.340  54.090
   C    79.130  64.360  56.360
   O    80.310  64.640  56.130
   O    78.340  64.800  57.400
   C    78.860  65.380  58.570
   C    79.030  66.860  58.300
   C    79.640  67.610  59.480
   C    81.140  67.660  59.210
   C    79.150  69.080  59.610
   N    79.430  66.810  60.780
   O    80.250  67.010  61.690
   C    78.280  65.780  60.970
   C    78.890  64.560  61.750
   C    77.160  66.390  61.730
   C    77.860  65.300  59.610
   C    79.590  61.890  55.810
   C    80.230  61.250  57.150
   C    80.770  59.910  56.830
   C    79.120  61.100  58.200
   O    78.770  61.970  58.940
   O    78.510  59.880  58.210
   C    77.360  59.630  58.970
   C    77.860  59.000  60.290
   C    76.730  59.020  61.230
   C    76.470  60.460  61.760
   C    76.990  58.100  62.430
   N    75.490  58.530  60.550
   H    74.670  58.260  61.220
   C    75.270  58.310  59.120
   C    74.090  59.120  58.720
   C    74.860  56.830  58.940
   C    76.520  58.570  58.310
   C    81.360  62.160  57.780
   C    82.340  61.590  58.900
   C    81.520  60.950  60.040
   C    83.430  60.590  58.370
   O    83.820  59.630  59.070
   O    83.810  60.800  57.150
   C    84.590  59.860  56.390
   C    83.740  58.680  55.730
   C    84.650  57.590  55.200
   C    83.960  56.720  54.090
   C    84.950  56.610  56.390
   N    85.970  58.080  54.620
   O    86.750  57.250  54.230
   C    86.270  59.550  54.440
   C    87.690  59.930  54.900
   C    86.210  59.870  52.880
   C    85.310  60.490  55.210
   C    83.080  62.790  59.640
   C    84.510  63.380  59.280
   C    85.630  62.330  59.750
   C    84.700  63.670  57.810
   O    85.700  63.420  57.190
   O    83.730  64.380  57.240
   C    83.940  65.240  56.070
   C    83.330  64.540  54.870
   C    83.520  65.470  53.660
   C    84.680  64.870  52.810
   C    82.190  65.510  52.780
   N    83.840  66.880  54.010
   H    84.250  67.490  53.200
   C    83.480  67.470  55.300
   C    82.260  68.340  54.970
   C    84.680  68.410  55.680
   C    83.230  66.470  56.380
   C    84.750  64.840  59.840
   C    84.700  65.250  61.360
   C    85.280  66.710  61.330
   C    85.560  64.340  62.320
   O    85.000  63.490  63.010
   O    86.820  64.870  62.560
   C    87.510  64.260  63.600
   C    88.410  63.230  63.170
   C    89.180  62.570  64.270
   C    90.250  61.670  63.600
   C    88.260  61.650  65.110
   N    89.850  63.560  65.260
   O    90.750  63.210  66.090
   C    89.280  64.940  65.370
   C    90.440  65.960  65.350
   C    88.510  65.070  66.750
   C    88.350  65.370  64.240
   C    83.220  65.370  61.930
   H    74.430  61.810  56.430
   H    74.850  63.000  57.580
   H    73.800  63.390  56.180
   H    76.750  65.330  55.330
   H    75.930  65.220  56.880
   H    75.040  65.400  55.430
   H    74.440  61.900  52.050
   H    76.870  60.800  51.930
   H    76.280  59.720  53.070
   H    77.130  59.590  49.570
   H    76.310  61.130  49.700
   H    75.630  59.790  48.790
   H    75.670  57.640  52.210
   H    77.050  58.020  51.090
   H    75.570  57.300  50.560
   H    72.070  61.660  51.560
   H    71.910  60.690  50.140
   H    70.850  60.520  51.420
   H    71.630  58.010  51.250
   H    71.570  58.480  52.920
   H    72.980  57.580  52.280
   H    74.010  59.320  53.660
   H    72.920  60.700  53.760
   H    77.130  62.720  57.260
   H    77.250  61.630  55.920
   H    79.610  63.340  53.790
   H    78.030  64.190  53.660
   H    78.150  62.510  53.520
   H    79.770  64.860  58.890
   H    79.600  66.960  57.370
   H    78.120  67.420  58.070
   H    81.710  66.720  59.200
   H    81.350  68.030  58.210
   H    81.640  68.380  59.860
   H    79.790  69.660  60.270
   H    78.120  69.030  59.960
   H    79.090  69.650  58.680
   H    78.360  63.660  61.420
   H    79.930  64.450  61.450
   H    78.800  64.840  62.800
   H    77.430  66.420  62.780
   H    76.840  67.320  61.270
   H    76.320  65.700  61.720
   H    77.010  65.840  59.190
   H    77.450  64.290  59.660
   H    80.520  62.170  55.310
   H    79.330  61.080  55.120
   H    79.950  59.330  56.410
   H    81.380  60.070  55.930
   H    81.180  59.290  57.630
   H    76.740  60.530  59.010
   H    78.760  59.450  60.720
   H    78.170  57.990  60.040
   H    77.010  61.230  61.220
   H    76.750  60.430  62.810
   H    75.400  60.680  61.740
   H    76.160  58.050  63.140
   H    77.230  57.080  62.150
   H    77.890  58.510  62.890
   H    74.410  60.150  58.910
   H    73.060  58.910  58.980
   H    73.990  58.970  57.650
   H    74.910  56.490  57.910
   H    75.590  56.300  59.550
   H    73.870  56.560  59.330
   H    76.350  58.760  57.250
   H    77.060  57.630  58.340
   H    80.960  63.090  58.150
   H    82.010  62.370  56.930
   H    80.990  60.070  59.670
   H    80.900  61.700  60.530
   H    82.240  60.560  60.760
   H    85.380  59.490  57.030
   H    83.110  59.090  54.930
   H    83.110  58.190  56.480
   H    82.940  56.510  54.400
   H    84.580  55.850  53.900
   H    83.890  57.210  53.120
   H    84.020  56.170  56.750
   H    85.630  55.820  56.100
   H    85.220  57.130  57.310
   H    87.700  60.130  55.970
   H    88.300  59.070  54.630
   H    88.150  60.660  54.230
   H    87.000  59.520  52.220
   H    85.270  59.530  52.440
   H    86.220  60.960  52.760
   H    84.510  60.880  54.580
   H    85.830  61.370  55.590
   H    82.350  63.600  59.660
   H    83.300  62.560  60.680
   H    86.640  62.740  59.840
   H    85.760  61.590  58.960
   H    85.280  61.700  60.560
   H    85.020  65.400  56.080
   H    82.330  64.130  55.050
   H    83.970  63.670  54.760
   H    84.880  65.670  52.100
   H    84.380  64.020  52.200
   H    85.490  64.640  53.490
   H    81.310  65.510  53.420
   H    82.100  64.540  52.290
   H    82.090  66.310  52.040
   H    82.030  69.020  55.800
   H    81.380  67.710  54.830
   H    82.210  68.940  54.060
   H    85.110  68.800  54.760
   H    85.410  67.910  56.320
   H    84.340  69.270  56.260
   H    82.170  66.340  56.600
   H    83.630  66.860  57.320
   H    85.760  65.000  59.480
   H    84.200  65.660  59.370
   H    85.260  67.090  62.360
   H    86.220  66.830  60.800
   H    84.630  67.380  60.770
   H    86.920  63.880  64.430
   H    88.950  63.580  62.290
   H    87.780  62.450  62.750
   H    90.990  62.340  63.150
   H    89.830  61.170  62.730
   H    90.680  60.940  64.290
   H    87.600  62.270  65.720
   H    87.680  61.000  64.450
   H    88.880  61.110  65.830
   H    90.880  65.830  66.340
   H    91.120  65.700  64.540
   H    90.090  66.960  65.100
   H    88.340  66.120  67.010
   H    89.180  64.700  67.520
   H    87.580  64.520  66.810
   H    88.880  65.840  63.400
   H    87.740  66.230  64.510
   H    83.210  65.760  62.940
   H    82.610  66.050  61.330
   H    82.720  64.400  62.040
  