239
PTMA_CHAIN5_time16
 C    73.840  61.100  57.560
   C    75.030  61.940  56.920
   C    74.700  63.500  57.160
   C    74.930  61.710  55.400
   O    74.670  62.560  54.570
   O    75.190  60.450  55.040
   C    75.000  59.900  53.710
   C    76.310  60.110  52.970
   C    75.980  59.740  51.530
   C    75.230  60.910  50.840
   C    77.230  59.320  50.790
   N    74.900  58.680  51.470
   H    74.460  58.520  50.480
   C    74.500  57.740  52.520
   C    73.070  57.330  52.150
   C    75.410  56.500  52.360
   C    74.770  58.430  53.870
   C    76.330  61.560  57.640
   C    77.720  62.140  57.250
   C    77.840  62.470  55.730
   C    78.020  63.550  57.890
   O    79.130  64.070  57.830
   O    77.010  64.140  58.600
   C    77.260  65.250  59.450
   C    76.940  66.490  58.690
   C    77.130  67.770  59.490
   C    78.610  68.160  59.620
   C    76.400  68.900  58.720
   N    76.730  67.630  60.950
   O    76.320  68.610  61.600
   C    76.790  66.330  61.700
   C    78.100  65.970  62.420
   C    75.640  66.250  62.750
   C    76.440  65.220  60.690
   C    78.880  61.180  57.640
   C    79.450  60.870  59.080
   C    79.990  59.420  58.940
   C    78.380  60.810  60.160
   O    78.080  61.870  60.630
   O    77.700  59.680  60.140
   C    76.760  59.380  61.100
   C    77.450  59.000  62.450
   C    76.300  58.860  63.490
   C    75.820  60.280  64.020
   C    76.820  58.150  64.770
   N    75.240  57.970  63.020
   H    74.720  57.360  63.770
   C    74.820  57.800  61.640
   C    73.570  58.590  61.460
   C    74.440  56.270  61.410
   C    75.890  58.210  60.650
   C    80.650  61.780  59.560
   C    81.600  61.480  60.820
   C    80.790  60.970  62.000
   C    82.630  60.360  60.470
   O    83.020  59.500  61.320
   O    82.900  60.260  59.200
   C    83.840  59.230  58.720
   C    83.110  57.910  58.390
   C    84.110  56.830  57.940
   C    83.250  55.740  57.240
   C    84.640  56.080  59.270
   N    85.200  57.270  57.020
   O    86.060  56.450  56.620
   C    85.550  58.690  56.880
   C    86.870  58.930  57.510
   C    85.730  59.200  55.400
   C    84.530  59.710  57.440
   C    82.280  62.840  61.270
   C    83.740  63.360  60.880
   C    84.810  62.740  61.790
   C    84.080  63.120  59.390
   O    85.130  62.640  59.010
   O    83.260  63.860  58.630
   C    83.580  64.050  57.250
   C    82.570  63.280  56.410
   C    82.840  63.510  54.950
   C    83.690  62.380  54.350
   C    81.550  63.580  54.170
   N    83.590  64.820  54.650
   H    83.830  64.970  53.590
   C    83.800  65.970  55.600
   C    83.040  67.200  55.040
   C    85.240  66.300  55.540
   C    83.300  65.530  56.900
   C    83.770  64.950  61.160
   C    83.330  65.630  62.510
   C    83.820  67.080  62.540
   C    83.960  64.860  63.720
   O    83.320  64.180  64.540
   O    85.210  65.300  63.960
   C    86.000  64.770  64.980
   C    87.340  64.200  64.550
   C    88.310  63.780  65.720
   C    89.800  63.550  65.210
   C    87.890  62.440  66.440
   N    88.350  64.860  66.790
   O    89.400  65.050  67.470
   C    87.120  65.640  67.130
   C    87.540  66.940  67.760
   C    86.180  64.920  68.100
   C    86.230  65.930  65.920
   C    81.730  65.770  62.640
   H    74.180  60.110  57.250
   H    73.850  61.120  58.650
   H    72.880  61.340  57.100
   H    74.520  63.700  58.210
   H    73.780  63.770  56.630
   H    75.530  64.020  56.680
   H    74.080  60.190  53.210
   H    76.580  61.160  52.890
   H    77.030  59.450  53.440
   H    75.690  61.860  51.070
   H    74.230  61.110  51.230
   H    75.110  60.660  49.780
   H    77.080  59.420  49.710
   H    77.490  58.270  50.930
   H    78.070  59.950  51.070
   H    73.000  56.870  51.160
   H    72.720  56.550  52.830
   H    72.490  58.240  52.050
   H    76.480  56.700  52.270
   H    75.150  55.840  51.530
   H    75.310  55.900  53.270
   H    75.590  57.970  54.420
   H    73.900  58.300  54.520
   H    76.160  61.650  58.710
   H    76.470  60.480  57.530
   H    78.860  62.750  55.480
   H    77.150  63.270  55.450
   H    77.630  61.650  55.040
   H    78.320  65.290  59.700
   H    77.580  66.570  57.810
   H    75.930  66.380  58.300
   H    79.130  68.330  58.680
   H    78.810  69.020  60.270
   H    79.190  67.360  60.090
   H    76.380  69.810  59.320
   H    75.340  68.670  58.610
   H    76.930  69.050  57.780
   H    79.050  66.280  62.000
   H    78.130  66.390  63.430
   H    78.170  64.930  62.750
   H    74.700  66.440  62.240
   H    75.410  65.310  63.240
   H    75.860  66.930  63.580
   H    75.390  65.120  60.410
   H    76.720  64.260  61.120
   H    79.690  61.470  56.970
   H    78.490  60.230  57.270
   H    79.280  58.670  58.600
   H    80.860  59.500  58.280
   H    80.200  59.000  59.930
   H    76.120  60.240  61.250
   H    78.070  59.850  62.730
   H    77.980  58.050  62.460
   H    76.530  60.840  64.640
   H    74.970  60.030  64.640
   H    75.440  61.010  63.300
   H    77.680  58.670  65.180
   H    75.990  58.200  65.470
   H    76.980  57.090  64.540
   H    72.810  58.080  62.040
   H    73.180  58.500  60.440
   H    73.570  59.630  61.770
   H    73.620  56.000  62.070
   H    74.360  56.020  60.360
   H    75.230  55.650  61.830
   H    75.510  58.460  59.670
   H    76.530  57.350  60.450
   H    80.140  62.740  59.650
   H    81.320  62.170  58.790
   H    80.380  59.990  61.760
   H    79.990  61.700  62.180
   H    81.190  60.940  63.010
   H    84.590  59.020  59.490
   H    82.490  58.200  57.550
   H    82.570  57.460  59.220
   H    82.480  55.280  57.840
   H    83.880  54.870  57.020
   H    82.830  56.120  56.310
   H    85.500  55.450  59.040
   H    85.090  56.710  60.020
   H    83.830  55.540  59.760
   H    87.700  58.500  56.940
   H    87.160  59.940  57.800
   H    86.900  58.410  58.470
   H    84.860  59.500  54.820
   H    86.270  60.150  55.280
   H    86.390  58.460  54.940
   H    83.740  59.930  56.730
   H    85.060  60.620  57.710
   H    81.570  63.570  60.890
   H    82.300  62.910  62.360
   H    85.110  61.770  61.390
   H    84.600  62.600  62.850
   H    85.700  63.360  61.720
   H    84.650  63.880  57.100
   H    81.540  63.570  56.630
   H    82.430  62.270  56.790
   H    84.700  62.270  54.740
   H    83.890  62.490  53.290
   H    83.170  61.430  54.350
   H    81.820  63.480  53.120
   H    81.040  64.510  54.390
   H    80.780  62.840  54.400
   H    83.410  67.620  54.110
   H    82.840  67.990  55.760
   H    82.050  66.790  54.840
   H    85.350  67.360  55.770
   H    85.640  66.130  54.550
   H    85.670  65.690  56.340
   H    82.230  65.730  56.880
   H    83.680  66.230  57.650
   H    84.770  65.340  60.940
   H    83.260  65.460  60.340
   H    84.880  67.350  62.580
   H    83.420  67.560  61.650
   H    83.300  67.500  63.400
   H    85.470  63.900  65.350
   H    87.800  64.980  63.940
   H    87.080  63.300  64.000
   H    90.320  64.500  65.180
   H    89.820  63.250  64.160
   H    90.350  62.750  65.710
   H    88.310  62.320  67.440
   H    86.810  62.370  66.460
   H    88.210  61.650  65.750
   H    88.240  67.580  67.230
   H    86.720  67.500  68.230
   H    88.120  66.830  68.670
   H    86.670  64.420  68.940
   H    85.660  64.070  67.660
   H    85.410  65.530  68.570
   H    86.820  66.690  65.410
   H    85.280  66.330  66.270
   H    81.440  66.550  63.350
   H    81.250  66.010  61.700
   H    81.280  64.860  63.040
  