239
PTMA_CHAIN10_time4
 C    80.490  69.030  56.880
   C    80.430  69.620  55.480
   C    81.920  69.700  55.040
   C    79.860  71.070  55.720
   O    80.510  72.110  55.520
   O    78.710  70.990  56.230
   C    77.950  72.090  56.480
   C    76.550  71.780  56.150
   C    75.700  73.070  56.190
   C    76.000  74.000  54.940
   C    74.210  72.880  56.120
   N    75.940  73.780  57.470
   H    75.100  74.340  57.870
   C    77.260  73.780  58.150
   C    77.990  75.080  57.640
   C    76.890  73.860  59.580
   C    78.110  72.500  57.970
   C    79.500  68.640  54.720
   C    79.450  68.590  53.140
   C    79.370  70.050  52.680
   C    80.600  67.840  52.480
   O    80.900  67.980  51.280
   O    81.330  67.030  53.340
   C    82.130  66.000  52.790
   C    83.610  66.400  52.470
   C    84.610  65.410  51.900
   C    84.550  65.210  50.380
   C    86.020  65.960  52.230
   N    84.320  64.070  52.520
   O    85.070  63.120  52.360
   C    83.030  63.790  53.310
   C    82.160  62.920  52.230
   C    83.490  62.940  54.560
   C    82.240  64.990  53.890
   C    78.180  67.930  52.640
   C    77.760  67.360  51.190
   C    76.250  67.320  51.330
   C    78.240  65.840  50.950
   O    79.080  65.340  51.640
   O    77.440  65.130  50.110
   C    77.760  63.750  49.970
   C    77.430  63.390  48.570
   C    78.040  61.980  48.360
   C    79.540  62.130  47.970
   C    77.280  61.210  47.300
   N    78.030  61.130  49.600
   H    78.450  60.120  49.560
   C    77.430  61.490  50.910
   C    78.600  61.300  51.930
   C    76.250  60.590  51.340
   C    76.950  62.920  50.880
   C    78.140  68.370  50.010
   C    77.970  68.050  48.530
   C    79.140  67.160  48.070
   C    76.600  67.510  48.050
   O    76.560  66.410  47.510
   O    75.600  68.280  48.270
   C    74.290  67.740  48.080
   C    73.450  68.450  49.120
   C    72.060  67.840  49.180
   C    71.070  68.870  49.810
   C    72.090  66.600  50.190
   N    71.470  67.350  47.870
   O    70.450  66.670  47.820
   C    72.210  67.610  46.580
   C    72.210  66.380  45.650
   C    71.470  68.750  45.890
   C    73.610  68.120  46.730
   C    78.320  69.430  47.810
   C    78.310  69.750  46.230
   C    78.470  68.500  45.370
   C    76.870  70.340  46.000
   O    75.980  69.650  45.450
   O    76.640  71.600  46.550
   C    75.410  72.270  46.590
   C    75.330  72.950  47.910
   C    73.930  73.580  48.070
   C    72.960  72.450  48.600
   C    73.940  74.870  48.930
   N    73.310  73.920  46.730
   H    72.250  74.200  46.730
   C    73.950  73.970  45.420
   C    73.880  75.360  44.860
   C    73.080  73.070  44.470
   C    75.400  73.490  45.620
   C    79.370  70.840  46.030
   C    79.720  71.480  44.590
   C    78.490  72.090  43.840
   C    80.480  70.480  43.660
   O    80.140  70.260  42.490
   O    81.610  70.010  44.280
   C    82.560  69.190  43.640
   C    83.720  69.940  43.030
   C    84.620  69.010  42.180
   C    86.120  69.390  42.340
   C    84.090  69.240  40.730
   N    84.490  67.520  42.580
   O    85.130  66.700  41.980
   C    83.830  67.130  43.890
   C    84.890  66.550  44.840
   C    82.760  66.040  43.650
   C    83.300  68.330  44.630
   C    80.650  72.600  44.750
   H    81.200  69.550  57.520
   H    79.580  69.030  57.480
   H    80.770  67.980  56.780
   H    82.560  70.190  55.780
   H    82.070  70.240  54.110
   H    82.340  68.730  54.780
   H    78.340  72.890  55.860
   H    76.480  71.340  55.150
   H    76.260  71.000  56.850
   H    75.720  75.050  55.080
   H    75.510  73.620  54.050
   H    77.050  73.960  54.680
   H    73.660  73.820  56.000
   H    73.750  72.520  57.040
   H    73.880  72.360  55.230
   H    77.990  75.130  56.550
   H    77.490  75.970  58.000
   H    79.030  75.130  57.940
   H    76.300  74.760  59.740
   H    77.780  73.720  60.200
   H    76.260  73.030  59.900
   H    77.700  71.670  58.540
   H    79.120  72.760  58.280
   H    79.670  67.620  55.060
   H    78.530  68.870  55.140
   H    79.240  70.260  51.620
   H    80.350  70.510  52.860
   H    78.710  70.630  53.330
   H    81.560  65.480  52.030
   H    83.390  67.180  51.740
   H    84.100  66.990  53.240
   H    84.540  66.140  49.820
   H    85.430  64.620  50.130
   H    83.690  64.650  50.010
   H    86.710  65.200  51.870
   H    86.080  66.300  53.270
   H    86.280  66.850  51.650
   H    82.690  62.010  51.940
   H    81.190  62.610  52.600
   H    81.940  63.430  51.290
   H    84.030  62.060  54.220
   H    84.260  63.490  55.090
   H    82.760  62.690  55.330
   H    82.710  65.510  54.730
   H    81.230  64.640  54.100
   H    77.400  68.630  52.950
   H    77.980  67.070  53.270
   H    76.020  66.780  52.250
   H    75.830  68.300  51.570
   H    75.910  66.850  50.410
   H    78.790  63.590  50.270
   H    77.640  64.120  47.790
   H    76.360  63.260  48.370
   H    80.260  62.540  48.670
   H    79.720  62.650  47.040
   H    80.020  61.160  47.850
   H    77.260  61.700  46.330
   H    77.760  60.280  46.970
   H    76.270  60.920  47.560
   H    78.250  61.750  52.850
   H    79.530  61.790  51.640
   H    78.740  60.230  52.120
   H    75.680  60.960  52.200
   H    75.570  60.290  50.550
   H    76.680  59.620  51.590
   H    76.950  63.370  51.880
   H    75.950  62.840  50.460
   H    79.180  68.670  50.040
   H    77.640  69.310  50.250
   H    79.320  66.380  48.820
   H    80.070  67.720  48.070
   H    79.090  66.700  47.080
   H    74.030  66.710  48.350
   H    73.410  69.540  49.010
   H    73.880  68.280  50.110
   H    70.170  68.430  50.240
   H    70.750  69.730  49.220
   H    71.510  69.430  50.640
   H    72.350  66.810  51.220
   H    71.090  66.180  50.230
   H    72.710  65.770  49.850
   H    73.110  65.790  45.760
   H    71.400  65.660  45.760
   H    72.130  66.740  44.620
   H    72.040  69.150  45.050
   H    70.470  68.400  45.670
   H    71.210  69.600  46.520
   H    73.580  69.210  46.640
   H    74.250  67.690  45.960
   H    77.730  70.150  48.380
   H    79.280  69.820  48.150
   H    79.470  68.070  45.410
   H    78.210  68.660  44.330
   H    77.750  67.710  45.600
   H    74.600  71.580  46.370
   H    76.110  73.610  48.280
   H    75.570  72.180  48.640
   H    71.930  72.780  48.560
   H    73.280  72.200  49.610
   H    73.000  71.530  48.020
   H    72.970  75.110  49.360
   H    74.390  75.720  48.420
   H    74.570  74.590  49.770
   H    74.400  76.050  45.530
   H    72.870  75.710  44.650
   H    74.400  75.300  43.910
   H    72.710  72.130  44.880
   H    73.510  72.950  43.480
   H    72.140  73.570  44.200
   H    76.110  74.210  46.030
   H    75.870  73.400  44.640
   H    79.050  71.710  46.600
   H    80.270  70.320  46.370
   H    78.740  72.650  42.940
   H    77.800  71.280  43.610
   H    77.960  72.720  44.550
   H    82.120  68.600  42.840
   H    84.090  70.650  43.760
   H    83.240  70.590  42.300
   H    86.260  70.380  41.900
   H    86.850  68.720  41.880
   H    86.330  69.600  43.390
   H    84.260  70.250  40.370
   H    84.460  68.480  40.040
   H    83.040  68.950  40.700
   H    85.860  67.060  44.820
   H    84.570  66.360  45.860
   H    85.090  65.540  44.470
   H    82.020  66.420  42.940
   H    82.280  65.910  44.620
   H    83.220  65.140  43.230
   H    84.170  68.820  45.080
   H    82.650  68.150  45.490
   H    80.230  73.540  44.410
   H    81.010  72.680  45.770
   H    81.520  72.570  44.100
  