239
PTMA_CHAIN5_time12
 C    74.970  62.320  59.160
   C    76.360  62.730  58.540
   C    76.550  64.230  58.880
   C    76.110  62.550  57.010
   O    76.120  63.500  56.240
   O    75.690  61.310  56.630
   C    75.210  61.100  55.290
   C    76.390  60.570  54.550
   C    76.040  60.070  53.060
   C    76.830  60.840  51.910
   C    76.490  58.580  52.920
   N    74.570  60.260  52.810
   H    74.290  60.560  51.800
   C    73.560  59.940  53.880
   C    72.560  61.020  53.530
   C    72.990  58.610  53.470
   C    74.120  60.030  55.250
   C    77.480  61.790  59.000
   C    78.990  62.150  58.700
   C    79.200  62.750  57.310
   C    79.600  63.140  59.680
   O    80.750  63.490  59.470
   O    78.720  63.630  60.630
   C    79.240  64.550  61.620
   C    78.870  65.900  61.140
   C    79.310  67.000  62.180
   C    80.850  67.440  61.840
   C    78.460  68.170  61.810
   N    79.150  66.600  63.650
   O    79.120  67.460  64.500
   C    79.010  65.130  64.000
   C    80.290  64.690  64.500
   C    78.110  65.100  65.260
   C    78.450  64.300  62.870
   C    79.920  60.870  58.610
   C    80.450  60.120  59.930
   C    80.650  58.640  59.460
   C    79.370  60.110  61.000
   O    79.460  60.940  61.960
   O    78.410  59.170  60.780
   C    77.410  59.060  61.760
   C    77.850  58.000  62.730
   C    76.870  57.940  63.900
   C    77.240  59.090  64.870
   C    76.960  56.510  64.620
   N    75.460  58.140  63.460
   H    74.690  58.090  64.230
   C    75.030  58.540  62.100
   C    74.300  59.880  62.130
   C    74.000  57.400  61.790
   C    76.140  58.550  61.080
   C    81.800  60.740  60.410
   C    82.800  60.040  61.450
   C    81.950  59.420  62.600
   C    83.670  58.820  60.860
   O    83.890  57.820  61.570
   O    83.840  58.930  59.540
   C    84.520  57.950  58.800
   C    83.820  56.630  58.650
   C    84.400  55.600  57.650
   C    83.310  54.660  57.160
   C    85.610  54.820  58.340
   N    85.040  56.310  56.420
   O    85.380  55.620  55.450
   C    85.520  57.720  56.450
   C    87.090  57.760  56.660
   C    85.380  58.390  55.050
   C    84.700  58.560  57.410
   C    83.800  61.060  62.110
   C    85.120  61.580  61.620
   C    86.350  60.690  62.020
   C    85.080  61.830  60.090
   O    85.740  61.180  59.320
   O    84.300  62.800  59.820
   C    84.590  63.440  58.640
   C    83.760  62.840  57.530
   C    84.080  63.510  56.270
   C    85.420  63.000  55.690
   C    82.850  63.260  55.410
   N    84.120  64.990  56.460
   H    84.350  65.640  55.610
   C    83.890  65.720  57.740
   C    82.410  66.280  57.700
   C    84.880  66.890  57.830
   C    83.990  64.820  58.960
   C    85.390  63.000  62.210
   C    85.480  63.390  63.760
   C    84.160  63.080  64.570
   C    85.650  64.880  63.810
   O    86.790  65.340  63.930
   O    84.510  65.590  63.780
   C    84.490  67.000  63.950
   C    84.520  67.780  62.690
   C    84.460  69.340  62.920
   C    83.950  69.870  61.580
   C    85.800  69.970  63.240
   N    83.440  69.830  63.950
   O    83.050  71.010  64.000
   C    83.120  68.900  65.080
   C    81.650  69.050  65.560
   C    84.060  69.300  66.250
   C    83.310  67.390  64.750
   C    86.710  62.740  64.510
   H    75.070  62.570  60.220
   H    74.140  62.910  58.790
   H    74.870  61.240  59.130
   H    75.780  64.780  58.350
   H    77.500  64.660  58.550
   H    76.480  64.480  59.940
   H    74.900  62.040  54.850
   H    77.120  61.380  54.610
   H    76.740  59.720  55.130
   H    77.880  61.060  52.140
   H    76.380  61.830  51.950
   H    76.690  60.350  50.950
   H    77.570  58.470  52.830
   H    76.090  57.990  52.100
   H    76.150  58.020  53.790
   H    72.870  61.990  53.910
   H    72.340  61.170  52.480
   H    71.590  60.790  53.980
   H    72.180  58.430  54.180
   H    73.720  57.800  53.470
   H    72.630  58.560  52.440
   H    74.450  59.050  55.610
   H    73.440  60.480  55.970
   H    77.280  61.590  60.050
   H    77.320  60.800  58.570
   H    78.790  63.760  57.240
   H    78.750  62.090  56.570
   H    80.270  62.810  57.070
   H    80.320  64.490  61.770
   H    79.330  66.140  60.180
   H    77.800  65.930  60.920
   H    80.970  68.050  60.940
   H    81.320  68.140  62.540
   H    81.410  66.540  61.610
   H    77.440  67.950  62.130
   H    78.370  68.340  60.730
   H    78.900  69.070  62.240
   H    80.120  63.700  64.930
   H    81.060  64.570  63.740
   H    80.720  65.320  65.280
   H    77.980  64.180  65.820
   H    78.570  65.750  66.010
   H    77.130  65.490  64.990
   H    77.370  64.290  62.730
   H    78.460  63.230  63.060
   H    80.810  61.090  58.020
   H    79.350  60.200  57.950
   H    79.740  58.080  59.240
   H    81.140  58.590  58.490
   H    81.260  58.080  60.160
   H    77.230  60.050  62.180
   H    78.790  58.240  63.210
   H    77.930  57.020  62.260
   H    76.320  59.290  65.430
   H    77.400  59.990  64.280
   H    78.080  58.840  65.510
   H    76.290  56.420  65.480
   H    76.520  55.830  63.890
   H    77.970  56.210  64.890
   H    74.910  60.780  62.090
   H    73.640  59.930  63.000
   H    73.690  59.990  61.230
   H    73.550  57.500  60.810
   H    74.450  56.420  61.600
   H    73.190  57.380  62.520
   H    75.870  59.170  60.220
   H    76.460  57.640  60.560
   H    81.620  61.750  60.780
   H    82.400  60.980  59.540
   H    81.290  58.630  62.220
   H    81.330  60.140  63.130
   H    82.580  59.030  63.400
   H    85.540  57.910  59.160
   H    82.830  56.850  58.260
   H    83.450  56.220  59.590
   H    83.620  53.790  56.580
   H    82.490  55.170  56.670
   H    82.880  54.320  58.100
   H    86.580  55.280  58.210
   H    85.430  54.580  59.380
   H    85.690  53.780  58.040
   H    87.530  58.730  56.420
   H    87.270  57.620  57.730
   H    87.640  56.990  56.120
   H    85.850  59.380  55.040
   H    85.690  57.780  54.210
   H    84.370  58.660  54.730
   H    83.700  58.820  57.060
   H    85.040  59.590  57.490
   H    83.220  61.940  62.380
   H    84.020  60.560  63.050
   H    86.410  59.730  61.500
   H    86.210  60.510  63.080
   H    87.260  61.250  61.790
   H    85.640  63.610  58.400
   H    82.760  63.100  57.860
   H    83.870  61.760  57.530
   H    85.750  63.490  54.760
   H    85.220  61.940  55.510
   H    86.230  63.100  56.410
   H    82.860  63.500  54.350
   H    81.880  63.700  55.650
   H    82.770  62.180  55.550
   H    82.200  66.840  56.790
   H    82.320  66.930  58.580
   H    81.660  65.500  57.760
   H    84.550  67.700  57.190
   H    85.850  66.520  57.470
   H    84.960  67.370  58.800
   H    82.990  64.750  59.380
   H    84.640  65.230  59.740
   H    86.240  63.480  61.720
   H    84.470  63.540  61.990
   H    84.040  62.000  64.680
   H    84.280  63.480  65.580
   H    83.230  63.490  64.180
   H    85.280  67.360  64.610
   H    83.640  67.480  62.120
   H    85.430  67.410  62.200
   H    84.040  70.940  61.740
   H    82.880  69.650  61.450
   H    84.640  69.670  60.760
   H    86.500  69.900  62.410
   H    85.760  71.020  63.540
   H    86.210  69.460  64.110
   H    81.160  68.190  66.020
   H    81.630  69.960  66.150
   H    80.960  69.240  64.740
   H    83.660  69.140  67.250
   H    84.340  70.350  66.140
   H    85.050  68.830  66.180
   H    82.450  66.810  64.410
   H    83.540  66.830  65.650
   H    86.940  63.330  65.400
   H    86.440  61.740  64.840
   H    87.500  62.740  63.760
  