239
PTMA_CHAIN5_time8
 C    73.650  54.200  64.170
   C    74.320  55.360  63.320
   C    73.580  56.570  63.870
   C    73.880  55.170  61.850
   O    73.030  55.930  61.360
   O    74.650  54.350  61.110
   C    74.320  54.020  59.770
   C    74.690  55.120  58.770
   C    74.330  54.690  57.330
   C    72.960  55.190  56.980
   C    75.210  55.360  56.290
   N    74.350  53.230  57.190
   H    73.900  52.770  56.310
   C    74.980  52.270  58.070
   C    74.290  50.920  57.920
   C    76.400  52.110  57.560
   C    74.960  52.700  59.490
   C    75.870  55.340  63.610
   C    76.850  56.580  63.140
   C    76.250  57.160  61.790
   C    76.950  57.810  64.150
   O    77.900  58.610  64.000
   O    75.950  57.920  64.980
   C    75.970  58.920  66.020
   C    75.080  60.150  65.440
   C    75.080  61.340  66.350
   C    76.440  62.100  66.160
   C    73.890  62.330  66.080
   N    74.910  60.920  67.830
   O    74.550  61.750  68.650
   C    75.260  59.500  68.280
   C    76.680  59.470  68.930
   C    74.220  59.090  69.390
   C    75.280  58.420  67.150
   C    78.230  56.040  62.690
   C    79.330  55.420  63.710
   C    80.040  54.280  62.980
   C    78.590  54.790  64.930
   O    78.460  55.380  66.010
   O    78.290  53.490  64.800
   C    77.660  52.750  65.800
   C    78.680  52.160  66.730
   C    78.040  51.470  67.940
   C    77.840  52.490  69.140
   C    79.020  50.480  68.510
   N    76.810  50.780  67.570
   H    76.290  50.180  68.320
   C    76.180  50.670  66.230
   C    74.720  51.000  66.350
   C    76.280  49.190  65.810
   C    76.930  51.490  65.170
   C    80.430  56.500  64.150
   C    81.720  56.130  64.970
   C    81.520  55.100  66.100
   C    82.870  55.610  64.060
   O    83.940  55.150  64.540
   O    82.710  55.790  62.690
   C    83.780  55.560  61.820
   C    83.960  54.080  61.490
   C    85.010  53.780  60.460
   C    84.660  52.380  59.810
   C    86.450  53.560  61.130
   N    85.280  54.840  59.450
   O    86.010  54.480  58.520
   C    84.950  56.300  59.600
   C    86.190  57.020  60.220
   C    84.640  56.880  58.210
   C    83.720  56.430  60.520
   C    82.140  57.420  65.700
   C    82.950  58.680  65.160
   C    84.510  58.440  65.190
   C    82.600  58.970  63.630
   O    83.440  58.950  62.730
   O    81.230  59.300  63.440
   C    80.820  60.160  62.390
   C    79.860  59.420  61.480
   C    79.630  60.240  60.220
   C    80.890  60.260  59.300
   C    78.500  59.600  59.480
   N    79.350  61.620  60.670
   H    78.860  62.330  60.010
   C    79.740  62.170  61.950
   C    78.550  63.030  62.510
   C    80.950  63.160  61.630
   C    80.040  61.210  63.030
   C    82.590  60.010  65.890
   C    82.880  60.130  67.490
   C    81.950  59.200  68.320
   C    82.450  61.530  68.000
   O    83.140  62.310  68.600
   O    81.320  61.830  67.480
   C    80.660  63.060  67.790
   C    80.020  63.610  66.510
   C    79.260  64.920  66.820
   C    78.400  65.180  65.520
   C    80.330  66.050  66.960
   N    78.360  64.890  68.010
   O    77.350  65.630  68.060
   C    78.710  63.940  69.150
   C    77.350  63.390  69.780
   C    79.360  64.670  70.280
   C    79.490  62.760  68.690
   C    84.320  59.920  68.060
   H    73.610  54.410  65.240
   H    72.610  53.960  63.930
   H    74.160  53.240  64.080
   H    72.510  56.400  63.770
   H    73.820  57.440  63.250
   H    73.750  56.960  64.880
   H    73.240  53.950  59.640
   H    74.320  56.130  58.940
   H    75.760  55.280  58.850
   H    72.220  54.930  57.740
   H    72.480  54.830  56.070
   H    72.890  56.270  56.830
   H    74.920  55.100  55.270
   H    76.270  55.120  56.370
   H    75.260  56.450  56.400
   H    73.320  50.860  58.400
   H    74.230  50.590  56.880
   H    74.850  50.050  58.260
   H    76.800  53.110  57.410
   H    76.550  51.540  56.640
   H    76.980  51.470  58.230
   H    75.980  52.710  59.870
   H    74.420  51.920  60.040
   H    76.100  54.930  64.590
   H    76.260  54.480  63.070
   H    75.280  57.640  61.900
   H    76.340  56.490  60.940
   H    76.840  58.030  61.490
   H    76.990  59.200  66.280
   H    75.280  60.500  64.430
   H    74.050  59.880  65.240
   H    76.510  63.060  66.680
   H    77.260  61.550  66.620
   H    76.660  62.240  65.110
   H    72.930  61.980  66.450
   H    73.800  62.590  65.030
   H    74.200  63.200  66.670
   H    76.850  58.450  69.300
   H    77.460  59.900  68.300
   H    76.600  60.100  69.820
   H    74.320  59.620  70.340
   H    73.220  59.060  68.960
   H    74.450  58.040  69.570
   H    74.330  58.000  66.830
   H    75.850  57.570  67.520
   H    78.740  56.740  62.030
   H    77.970  55.280  61.950
   H    80.600  54.630  62.110
   H    80.730  53.680  63.580
   H    79.390  53.430  62.750
   H    76.970  53.290  66.450
   H    79.330  53.000  66.940
   H    79.230  51.390  66.190
   H    77.190  53.290  68.780
   H    78.740  53.040  69.410
   H    77.590  51.920  70.030
   H    79.230  49.580  67.930
   H    79.990  50.970  68.600
   H    78.820  50.110  69.520
   H    74.560  52.070  66.390
   H    74.310  50.430  67.180
   H    74.240  50.630  65.430
   H    75.670  48.470  66.360
   H    75.930  49.060  64.780
   H    77.300  48.810  65.740
   H    76.160  51.860  64.480
   H    77.550  50.800  64.610
   H    79.920  57.330  64.630
   H    80.760  56.880  63.180
   H    81.230  54.100  65.790
   H    80.740  55.370  66.810
   H    82.390  54.900  66.720
   H    84.610  55.760  62.490
   H    83.000  53.670  61.160
   H    84.240  53.580  62.410
   H    83.600  52.430  59.560
   H    84.580  51.620  60.590
   H    85.260  52.010  58.980
   H    87.250  53.570  60.390
   H    86.730  54.170  61.990
   H    86.420  52.590  61.630
   H    86.270  56.540  61.190
   H    87.020  56.700  59.590
   H    86.120  58.110  60.260
   H    85.600  57.240  57.830
   H    84.260  56.100  57.550
   H    83.930  57.700  58.240
   H    82.810  56.150  59.990
   H    83.610  57.480  60.800
   H    81.230  57.790  66.180
   H    82.790  57.050  66.490
   H    85.100  59.360  65.170
   H    84.920  57.750  64.460
   H    84.730  57.990  66.160
   H    81.680  60.600  61.890
   H    78.880  59.210  61.910
   H    80.210  58.420  61.200
   H    81.780  60.540  59.860
   H    80.830  60.910  58.430
   H    81.120  59.220  59.050
   H    77.450  59.840  59.650
   H    78.560  58.510  59.390
   H    78.490  60.100  58.520
   H    78.940  63.500  63.410
   H    77.750  62.320  62.730
   H    78.070  63.770  61.880
   H    81.750  62.660  61.090
   H    81.480  63.440  62.540
   H    80.700  63.970  60.950
   H    79.120  60.900  63.530
   H    80.660  61.640  63.820
   H    83.140  60.880  65.530
   H    81.560  60.320  65.680
   H    82.330  58.180  68.280
   H    81.910  59.350  69.400
   H    80.940  59.230  67.910
   H    81.380  63.810  68.110
   H    79.230  62.930  66.190
   H    80.690  63.670  65.660
   H    77.800  66.090  65.620
   H    77.730  64.340  65.300
   H    79.100  65.330  64.700
   H    81.230  65.990  67.570
   H    80.650  66.270  65.950
   H    79.870  66.950  67.380
   H    76.860  62.740  69.060
   H    77.450  62.750  70.660
   H    76.640  64.200  69.950
   H    79.680  64.140  71.180
   H    78.740  65.440  70.730
   H    80.230  65.270  70.020
   H    78.780  62.120  68.160
   H    79.770  62.080  69.490
   H    84.640  58.880  68.160
   H    85.050  60.400  67.400
   H    84.430  60.330  69.070
  