239
PTMA_CHAIN6_frame6
 C    60.380  40.530  39.360
   C    61.750  39.770  39.220
   C    61.210  38.530  38.470
   C    62.170  39.420  40.690
   O    61.910  38.360  41.260
   O    62.910  40.440  41.310
   C    63.090  40.360  42.690
   C    64.580  40.550  43.110
   C    64.800  40.390  44.570
   C    64.550  38.920  45.080
   C    66.310  40.660  44.800
   N    63.860  41.360  45.320
   O    64.250  41.910  46.360
   C    62.450  41.560  44.840
   C    61.480  40.680  45.630
   C    61.950  42.940  45.200
   C    62.370  41.510  43.320
   C    62.750  40.750  38.520
   C    64.230  40.410  38.010
   C    65.210  40.420  39.250
   C    64.180  38.960  37.330
   O    64.520  37.910  37.880
   O    63.650  39.060  36.080
   C    63.460  37.960  35.340
   C    62.070  38.160  34.690
   C    61.620  37.020  33.750
   C    61.090  35.930  34.730
   C    60.390  37.540  32.930
   N    62.700  36.540  32.810
   O    62.430  36.120  31.680
   C    64.170  36.660  33.250
   C    64.620  35.230  33.610
   C    65.140  37.070  32.120
   C    64.510  37.740  34.340
   C    64.580  41.520  36.970
   C    66.040  41.700  36.210
   C    66.960  42.560  37.140
   C    65.760  42.470  34.930
   O    65.320  41.880  33.920
   O    66.250  43.720  34.930
   C    65.900  44.560  33.920
   C    67.200  45.240  33.580
   C    66.940  46.410  32.530
   C    67.320  45.780  31.140
   C    67.940  47.620  32.620
   N    65.530  47.020  32.610
   O    65.160  47.840  31.750
   C    64.740  46.870  33.850
   C    63.210  46.950  33.490
   C    64.930  48.110  34.710
   C    64.990  45.580  34.650
   C    66.730  40.300  35.800
   C    68.200  40.200  35.210
   C    68.470  41.260  34.110
   C    69.140  40.370  36.420
   O    69.990  41.260  36.450
   O    68.990  39.400  37.440
   C    69.880  39.470  38.590
   C    69.200  40.240  39.700
   C    69.970  40.350  41.040
   C    68.950  40.490  42.210
   C    70.780  41.630  41.080
   N    70.670  39.080  41.420
   O    71.100  38.930  42.550
   C    70.990  37.960  40.330
   C    72.380  38.240  39.870
   C    70.960  36.590  41.040
   C    70.000  38.020  39.170
   C    68.340  38.800  34.530
   C    69.670  38.070  34.140
   C    70.860  38.960  34.090
   C    69.920  36.930  35.100
   O    70.850  36.830  35.880
   O    68.860  36.090  35.140
   C    68.720  35.170  36.210
   C    67.270  35.280  36.710
   C    66.930  34.270  37.830
   C    67.580  34.780  39.110
   C    65.370  34.210  37.940
   N    67.490  32.920  37.550
   O    66.820  31.930  37.890
   C    68.810  32.680  36.900
   C    68.920  31.290  36.270
   C    69.900  32.730  37.990
   C    69.090  33.750  35.780
   C    69.520  37.520  32.640
   C    70.620  36.630  31.980
   C    71.730  37.560  31.410
   C    70.070  35.950  30.700
   O    70.710  35.030  30.160
   O    68.930  36.480  30.220
   C    68.270  36.090  29.010
   C    66.970  35.530  29.390
   C    66.100  35.020  28.230
   C    64.760  34.620  28.800
   C    66.760  33.810  27.640
   N    66.000  36.090  27.130
   O    65.190  35.960  26.170
   C    67.200  37.100  26.880
   C    66.520  38.460  26.520
   C    68.010  36.700  25.680
   C    68.020  37.360  28.160
   C    71.300  35.490  32.760
   H    59.740  39.920  40.000
   H    60.550  41.370  40.030
   H    59.780  40.890  38.530
   H    61.950  37.760  38.220
   H    60.560  38.770  37.630
   H    60.520  38.090  39.180
   H    62.750  39.420  43.120
   H    65.230  39.940  42.480
   H    64.960  41.540  42.850
   H    65.120  38.080  44.690
   H    63.490  38.700  45.110
   H    64.750  38.840  46.150
   H    66.920  39.960  44.230
   H    66.490  40.730  45.870
   H    66.330  41.700  44.450
   H    61.590  39.620  45.410
   H    61.600  40.770  46.710
   H    60.450  41.010  45.480
   H    62.710  43.640  44.860
   H    61.910  43.050  46.280
   H    61.020  43.190  44.680
   H    62.800  42.430  42.920
   H    61.350  41.530  42.910
   H    62.270  41.080  37.600
   H    62.870  41.720  39.000
   H    64.980  39.650  39.980
   H    65.230  41.430  39.660
   H    66.220  40.210  38.910
   H    63.340  37.060  35.950
   H    61.460  38.170  35.590
   H    61.990  39.120  34.180
   H    61.910  35.500  35.300
   H    60.240  36.280  35.320
   H    60.650  35.110  34.160
   H    60.030  36.790  32.220
   H    60.680  38.470  32.430
   H    59.520  37.820  33.510
   H    65.670  35.180  33.890
   H    64.010  34.740  34.370
   H    64.420  34.680  32.690
   H    64.950  36.350  31.320
   H    64.920  38.060  31.730
   H    66.140  36.920  32.500
   H    64.600  38.730  33.900
   H    65.450  37.450  34.800
   H    64.380  42.490  37.420
   H    63.760  41.610  36.260
   H    67.810  42.930  36.570
   H    66.380  43.380  37.560
   H    67.400  42.010  37.970
   H    65.340  44.070  33.120
   H    68.010  44.570  33.290
   H    67.590  45.660  34.510
   H    66.820  44.820  31.000
   H    68.390  45.650  31.060
   H    66.980  46.470  30.370
   H    68.980  47.370  32.830
   H    67.900  48.190  31.700
   H    67.560  48.280  33.410
   H    62.590  46.810  34.370
   H    63.070  46.120  32.800
   H    63.040  47.880  32.940
   H    64.490  48.960  34.190
   H    64.410  48.150  35.670
   H    65.980  48.400  34.780
   H    64.020  45.160  34.920
   H    65.440  45.880  35.600
   H    66.020  39.850  35.100
   H    66.710  39.610  36.650
   H    69.370  41.160  33.500
   H    68.680  42.290  34.400
   H    67.680  41.350  33.370
   H    70.850  39.920  38.370
   H    68.210  39.800  39.860
   H    69.060  41.270  39.380
   H    68.240  41.280  41.950
   H    69.450  40.850  43.110
   H    68.410  39.620  42.570
   H    70.270  42.580  40.930
   H    71.340  41.670  42.010
   H    71.520  41.640  40.270
   H    72.970  38.040  40.760
   H    72.600  37.460  39.140
   H    72.610  39.250  39.520
   H    70.970  35.750  40.350
   H    71.680  36.400  41.840
   H    69.990  36.510  41.540
   H    69.020  37.650  39.470
   H    70.340  37.430  38.320
   H    67.710  38.120  35.090
   H    67.720  39.000  33.660
   H    70.890  39.630  33.220
   H    71.710  38.300  33.930
   H    71.020  39.400  35.080
   H    69.330  35.470  37.060
   H    66.740  34.960  35.820
   H    67.060  36.280  37.090
   H    68.550  35.280  39.040
   H    67.630  34.090  39.960
   H    66.880  35.540  39.470
   H    64.840  33.940  37.030
   H    64.880  35.100  38.340
   H    65.200  33.440  38.690
   H    68.150  31.300  35.500
   H    68.740  30.400  36.870
   H    69.800  31.150  35.640
   H    70.630  32.020  37.600
   H    69.610  32.170  38.890
   H    70.280  33.740  38.150
   H    68.400  33.660  34.930
   H    70.090  33.650  35.360
   H    68.590  36.950  32.700
   H    69.150  38.310  31.980
   H    72.520  37.840  32.100
   H    72.370  37.120  30.640
   H    71.320  38.400  30.850
   H    68.940  35.490  28.400
   H    66.400  36.350  29.830
   H    67.130  34.760  30.140
   H    64.290  35.480  29.260
   H    64.780  33.830  29.550
   H    64.120  34.040  28.130
   H    66.710  32.990  28.360
   H    66.310  33.550  26.690
   H    67.820  34.020  27.460
   H    67.290  39.210  26.350
   H    66.030  38.380  25.550
   H    65.840  38.840  27.280
   H    67.750  37.350  24.850
   H    67.760  35.710  25.280
   H    69.090  36.760  25.850
   H    67.480  38.110  28.740
   H    69.000  37.730  27.880
   H    71.910  34.770  32.210
   H    71.840  36.030  33.540
   H    70.640  34.810  33.310
  