239
PTMA_CHAIN4_time500
 C    95.970  92.370  21.270
   C    94.560  92.160  20.670
   C    94.450  92.950  19.400
   C    93.470  92.650  21.600
   O    92.770  93.630  21.350
   O    93.440  92.000  22.800
   C    92.270  92.290  23.720
   C    91.030  91.440  23.320
   C    89.890  91.700  24.340
   C    89.230  93.140  24.140
   C    88.770  90.750  24.040
   N    90.360  91.600  25.750
   O    89.580  91.220  26.650
   C    91.740  91.970  26.220
   C    91.770  93.400  26.750
   C    92.210  91.010  27.300
   C    92.800  91.750  25.060
   C    94.410  90.610  20.560
   C    93.360  89.900  19.610
   C    91.970  90.510  19.800
   C    93.790  90.140  18.100
   O    92.890  90.080  17.230
   O    95.100  90.390  17.820
   C    95.560  90.550  16.470
   C    95.420  91.970  15.940
   C    95.780  91.960  14.420
   C    94.640  91.150  13.630
   C    95.960  93.390  14.020
   N    97.010  91.200  14.010
   O    97.480  91.400  12.870
   C    97.550  90.080  14.910
   C    97.190  88.670  14.290
   C    99.120  90.190  14.930
   C    97.070  90.060  16.380
   C    93.140  88.370  20.090
   C    93.220  87.150  19.150
   C    92.940  86.040  20.100
   C    94.710  86.990  18.650
   O    95.510  87.880  18.970
   O    95.040  85.740  18.390
   C    96.380  85.230  18.370
   C    97.070  85.470  17.080
   C    98.570  85.220  17.230
   C    99.200  86.490  17.870
   C    99.200  85.100  15.790
   N    98.810  83.930  17.990
   O    99.910  83.540  18.030
   C    97.770  83.220  18.790
   C    98.090  83.360  20.340
   C    97.750  81.680  18.380
   C    96.360  83.790  18.600
   C    92.110  87.180  18.000
   C    92.290  86.770  16.490
   C    93.700  87.050  15.890
   C    92.300  85.210  16.290
   O    92.410  84.740  15.170
   O    92.110  84.400  17.410
   C    91.610  83.140  17.260
   C    92.770  82.260  17.650
   C    92.400  80.730  17.720
   C    92.720  80.170  19.120
   C    93.190  79.880  16.690
   N    90.910  80.490  17.540
   O    90.620  79.500  16.920
   C    89.860  81.490  17.880
   C    88.920  81.690  16.630
   C    89.010  80.990  19.030
   C    90.510  82.870  18.220
   C    91.340  87.510  15.540
   C    89.790  87.240  15.370
   C    89.540  86.390  14.050
   C    89.110  86.410  16.530
   O    88.980  85.220  16.450
   O    88.760  87.100  17.620
   C    88.080  86.500  18.700
   C    88.750  86.890  20.030
   C    88.140  86.330  21.320
   C    88.590  84.870  21.640
   C    88.500  87.240  22.590
   N    86.600  86.290  21.130
   O    85.940  85.480  21.850
   C    85.940  87.110  20.050
   C    85.950  88.590  20.550
   C    84.420  86.730  19.850
   C    86.630  87.030  18.640
   C    88.880  88.600  15.380
   C    88.820  89.670  14.250
   C    90.260  89.970  13.660
   C    88.110  90.970  14.760
   O    87.930  91.830  13.880
   O    88.000  91.080  16.110
   C    87.690  92.300  16.860
   C    87.110  91.790  18.210
   C    86.890  92.830  19.320
   C    87.070  92.240  20.750
   C    85.420  93.210  19.200
   N    87.740  94.020  19.170
   O    87.620  94.940  19.950
   C    88.720  94.220  18.060
   C    90.050  94.460  18.810
   C    88.460  95.440  17.150
   C    88.920  93.070  17.110
   C    87.950  89.160  13.060
   H    96.730  92.480  20.500
   H    95.980  93.330  21.800
   H    96.290  91.600  21.980
   H    95.200  92.720  18.650
   H    94.580  94.020  19.540
   H    93.500  92.900  18.850
   H    92.120  93.370  23.710
   H    90.630  91.660  22.330
   H    91.370  90.400  23.330
   H    89.140  93.250  23.060
   H    89.800  93.970  24.560
   H    88.240  93.280  24.570
   H    88.870  90.400  23.010
   H    87.770  91.180  24.070
   H    88.720  89.910  24.730
   H    91.730  94.050  25.870
   H    90.970  93.630  27.450
   H    92.720  93.580  27.260
   H    93.220  91.280  27.620
   H    92.380  89.980  26.970
   H    91.590  91.000  28.190
   H    93.000  90.690  24.930
   H    93.750  92.190  25.350
   H    95.350  90.210  20.200
   H    94.370  90.180  21.560
   H    91.180  90.150  19.140
   H    91.940  91.570  19.530
   H    91.550  90.400  20.800
   H    94.920  89.890  15.890
   H    94.460  92.410  16.170
   H    96.100  92.660  16.440
   H    94.660  90.060  13.560
   H    93.630  91.340  13.970
   H    94.610  91.480  12.600
   H    95.140  94.020  14.350
   H    96.080  93.550  12.950
   H    96.840  93.840  14.480
   H    97.100  88.870  13.220
   H    97.940  87.910  14.460
   H    96.250  88.320  14.720
   H    99.550  89.470  15.620
   H    99.590  89.940  13.980
   H    99.460  91.200  15.160
   H    97.640  90.650  17.100
   H    97.030  89.060  16.810
   H    92.180  88.240  20.580
   H    93.920  88.160  20.820
   H    93.760  85.970  20.820
   H    92.030  86.040  20.690
   H    92.980  85.060  19.640
   H    96.950  85.650  19.210
   H    96.870  86.520  16.830
   H    96.570  84.960  16.260
   H    98.770  86.840  18.810
   H    99.000  87.310  17.180
   H    100.250  86.230  18.030
   H    100.290  85.060  15.810
   H    98.770  84.320  15.150
   H    98.930  85.990  15.220
   H    99.130  83.100  20.520
   H    97.510  82.720  21.000
   H    97.970  84.420  20.560
   H    97.180  81.500  17.470
   H    98.780  81.370  18.190
   H    97.250  81.010  19.070
   H    95.690  83.580  19.440
   H    95.770  83.260  17.850
   H    91.660  88.170  18.080
   H    91.320  86.520  18.350
   H    93.940  88.080  16.150
   H    93.760  87.180  14.810
   H    94.480  86.360  16.200
   H    91.270  82.920  16.250
   H    93.150  82.630  18.600
   H    93.540  82.430  16.900
   H    92.100  80.670  19.860
   H    93.730  80.430  19.450
   H    92.610  79.090  19.220
   H    94.260  80.050  16.710
   H    92.910  78.830  16.770
   H    93.010  80.200  15.660
   H    89.350  82.280  15.820
   H    88.570  80.720  16.270
   H    88.040  82.310  16.800
   H    88.200  80.330  18.740
   H    89.640  80.580  19.820
   H    88.500  81.880  19.390
   H    90.920  83.020  19.210
   H    89.800  83.680  18.060
   H    91.490  88.570  15.740
   H    91.620  87.210  14.530
   H    90.130  85.470  14.000
   H    89.790  86.890  13.120
   H    88.510  86.040  14.050
   H    88.060  85.410  18.740
   H    88.690  87.970  20.090
   H    89.820  86.730  19.940
   H    89.680  84.860  21.690
   H    88.100  84.090  21.060
   H    88.230  84.710  22.650
   H    89.580  87.390  22.540
   H    88.200  86.780  23.530
   H    87.960  88.190  22.570
   H    85.480  89.210  19.790
   H    86.920  89.070  20.640
   H    85.320  88.670  21.430
   H    84.410  85.760  19.350
   H    84.070  87.470  19.140
   H    83.780  86.770  20.740
   H    86.780  88.060  18.320
   H    86.110  86.460  17.860
   H    87.850  88.420  15.710
   H    89.380  89.080  16.230
   H    90.800  89.070  13.390
   H    90.180  90.690  12.850
   H    90.800  90.450  14.480
   H    86.940  92.800  16.250
   H    87.730  90.990  18.620
   H    86.210  91.210  17.990
   H    87.070  93.070  21.450
   H    87.970  91.620  20.820
   H    86.250  91.600  21.080
   H    84.730  92.420  19.490
   H    85.110  94.060  19.810
   H    85.370  93.590  18.180
   H    90.010  95.380  19.390
   H    90.230  93.680  19.550
   H    90.990  94.350  18.270
   H    88.320  96.320  17.780
   H    87.600  95.410  16.480
   H    89.300  95.690  16.500
   H    89.670  92.400  17.520
   H    89.230  93.420  16.120
   H    87.760  89.920  12.300
   H    88.470  88.400  12.470
   H    86.960  88.850  13.400
  