239
PTMA_CHAIN7_time5
 C    101.870  9.730  13.640
   C    101.890  10.980  14.540
   C    103.130  10.880  15.390
   C    100.570  10.820  15.410
   O    100.550  10.420  16.560
   O    99.490  11.040  14.710
   C    98.220  10.710  15.160
   C    97.660  11.850  15.960
   C    96.200  11.800  16.320
   C    95.970  11.140  17.590
   C    95.710  13.260  16.400
   N    95.360  11.130  15.170
   H    94.880  11.880  14.540
   C    95.950  9.970  14.400
   C    95.980  8.580  15.140
   C    94.950  9.810  13.260
   C    97.350  10.460  13.940
   C    101.910  12.250  13.520
   C    101.900  13.720  13.990
   C    100.680  13.960  14.940
   C    103.250  14.020  14.770
   O    103.330  14.740  15.790
   O    104.280  13.440  14.120
   C    105.610  13.760  14.430
   C    106.080  12.870  15.530
   C    107.570  13.020  15.880
   C    107.910  13.740  17.180
   C    108.190  11.630  15.990
   N    108.390  13.560  14.750
   H    109.290  14.120  15.030
   C    107.910  13.720  13.330
   C    108.110  15.200  12.910
   C    108.820  12.790  12.400
   C    106.450  13.320  13.230
   C    101.810  14.600  12.660
   C    101.630  16.140  12.580
   C    100.210  16.460  13.110
   C    101.600  16.480  11.040
   O    102.420  17.250  10.470
   O    100.530  15.920  10.410
   C    100.220  16.270  9.030
   C    98.800  16.730  8.990
   C    98.540  17.350  7.640
   C    99.250  18.700  7.520
   C    96.990  17.460  7.580
   N    99.060  16.420  6.570
   H    98.550  16.380  5.610
   C    100.190  15.430  6.760
   C    101.400  16.030  6.050
   C    99.860  14.150  6.110
   C    100.340  15.050  8.210
   C    102.640  16.980  13.490
   C    103.260  18.340  13.220
   C    104.530  18.180  12.350
   C    102.390  19.450  12.520
   O    102.820  20.610  12.470
   O    101.150  19.160  12.310
   C    100.180  20.270  12.250
   C    100.170  20.870  10.840
   C    99.470  22.250  10.940
   C    99.220  22.780  9.580
   C    100.440  23.210  11.630
   N    98.210  22.170  11.660
   H    97.430  22.890  11.400
   C    97.850  21.110  12.650
   C    97.840  21.780  14.070
   C    96.440  20.700  12.200
   C    98.720  19.890  12.500
   C    103.910  18.960  14.610
   C    103.220  19.420  15.930
   C    104.120  20.580  16.490
   C    101.780  19.900  15.690
   O    101.500  21.070  15.400
   O    100.870  18.900  15.620
   C    99.890  18.710  16.670
   C    98.580  19.480  16.540
   C    97.650  19.290  17.730
   C    98.050  20.080  18.990
   C    96.290  19.780  17.340
   N    97.600  17.830  18.110
   H    96.820  17.590  18.840
   C    98.680  16.860  17.850
   C    98.030  15.520  17.530
   C    99.460  16.670  19.140
   C    99.480  17.210  16.640
   C    103.120  18.230  16.960
   C    104.190  17.960  18.100
   C    105.630  17.590  17.530
   C    103.620  16.680  18.860
   O    102.470  16.260  18.700
   O    104.580  16.030  19.600
   C    104.240  14.710  20.080
   C    105.150  13.600  19.450
   C    104.770  12.180  19.990
   C    105.990  11.150  20.070
   C    103.750  11.680  18.990
   N    104.090  12.250  21.360
   O    103.510  11.250  21.700
   C    104.050  13.460  22.220
   C    104.900  13.260  23.480
   C    102.560  13.680  22.740
   C    104.490  14.730  21.520
   C    104.230  19.010  19.230
   H    102.600  9.620  12.840
   H    102.030  8.830  14.250
   H    100.950  9.430  13.140
   H    103.980  10.830  14.720
   H    103.200  9.990  16.020
   H    103.170  11.700  16.110
   H    98.320  9.760  15.700
   H    98.180  11.950  16.920
   H    97.910  12.760  15.410
   H    94.910  11.130  17.830
   H    96.470  11.610  18.440
   H    96.420  10.150  17.500
   H    96.110  13.700  17.310
   H    94.620  13.350  16.380
   H    96.140  13.860  15.590
   H    95.010  8.120  15.340
   H    96.510  7.860  14.530
   H    96.510  8.500  16.090
   H    95.190  10.520  12.470
   H    93.930  10.010  13.610
   H    95.070  8.870  12.710
   H    97.250  11.440  13.470
   H    97.860  9.810  13.230
   H    102.740  12.060  12.830
   H    101.050  12.080  12.870
   H    100.780  14.990  15.270
   H    100.750  13.340  15.840
   H    99.730  13.720  14.470
   H    105.710  14.820  14.660
   H    105.470  13.070  16.420
   H    105.850  11.820  15.370
   H    108.990  13.810  17.350
   H    107.520  14.740  17.360
   H    107.600  13.120  18.020
   H    109.260  11.620  16.220
   H    108.150  11.170  15.000
   H    107.660  10.960  16.670
   H    107.520  15.910  13.490
   H    109.140  15.500  13.090
   H    107.940  15.360  11.840
   H    108.980  11.870  12.960
   H    108.250  12.590  11.490
   H    109.760  13.270  12.140
   H    106.440  12.240  13.090
   H    105.990  13.820  12.380
   H    101.080  14.130  12.000
   H    102.700  14.460  12.050
   H    99.500  15.630  13.120
   H    100.300  16.940  14.080
   H    99.710  17.230  12.530
   H    100.930  17.050  8.710
   H    98.670  17.530  9.720
   H    98.170  15.900  9.320
   H    98.810  19.430  8.200
   H    98.970  19.030  6.520
   H    100.330  18.690  7.660
   H    96.470  16.690  7.010
   H    96.530  17.390  8.570
   H    96.630  18.400  7.150
   H    100.990  16.580  5.200
   H    102.070  15.310  5.580
   H    101.900  16.840  6.570
   H    98.920  13.700  6.430
   H    99.760  14.190  5.030
   H    100.600  13.370  6.270
   H    101.340  14.640  8.370
   H    99.630  14.300  8.580
   H    103.550  16.390  13.460
   H    102.360  16.960  14.540
   H    104.460  17.550  11.470
   H    105.350  17.900  13.010
   H    104.890  19.140  11.980
   H    100.470  21.020  12.980
   H    99.690  20.320  10.030
   H    101.200  21.040  10.500
   H    98.400  22.280  9.060
   H    100.080  22.540  8.950
   H    99.070  23.860  9.620
   H    101.280  23.570  11.030
   H    99.800  24.050  11.890
   H    100.910  22.920  12.570
   H    97.290  21.160  14.790
   H    98.840  21.990  14.450
   H    97.250  22.690  13.960
   H    96.110  19.800  12.710
   H    95.650  21.430  12.370
   H    96.450  20.460  11.140
   H    98.380  19.200  11.730
   H    98.720  19.340  13.440
   H    104.680  18.250  14.910
   H    104.420  19.910  14.410
   H    105.170  20.390  16.700
   H    103.810  21.020  17.440
   H    104.050  21.480  15.870
   H    100.320  19.010  17.620
   H    98.110  19.300  15.570
   H    98.990  20.490  16.490
   H    97.570  21.060  18.970
   H    99.100  20.370  18.950
   H    97.860  19.620  19.960
   H    96.360  20.830  17.070
   H    95.600  19.700  18.180
   H    95.930  19.280  16.440
   H    97.480  15.110  18.370
   H    98.730  14.750  17.200
   H    97.250  15.640  16.770
   H    100.160  17.460  19.400
   H    100.100  15.790  19.140
   H    98.780  16.560  19.980
   H    98.960  16.950  15.710
   H    100.360  16.570  16.610
   H    102.200  18.310  17.540
   H    102.950  17.340  16.350
   H    106.020  18.390  16.900
   H    106.350  17.350  18.310
   H    105.520  16.720  16.880
   H    103.180  14.500  19.920
   H    106.180  13.810  19.730
   H    104.970  13.710  18.380
   H    105.660  10.190  20.480
   H    106.850  11.520  20.630
   H    106.340  10.840  19.080
   H    102.790  12.190  19.050
   H    104.090  11.840  17.960
   H    103.650  10.600  19.100
   H    104.820  14.210  24.010
   H    104.450  12.520  24.130
   H    105.900  13.030  23.090
   H    102.620  14.490  23.450
   H    102.160  12.810  23.270
   H    101.870  14.020  21.960
   H    105.560  14.900  21.680
   H    104.000  15.540  22.060
   H    103.280  19.530  19.330
   H    104.450  18.530  20.180
   H    105.030  19.740  19.140
  