239
PTMA_CHAIN7_time0point0005
 C    102.760  11.190  16.100
   C    102.610  12.690  16.480
   C    103.560  12.950  17.650
   C    101.150  12.850  16.940
   O    100.820  13.040  18.110
   O    100.280  12.600  15.930
   C    98.920  12.260  16.300
   C    98.060  13.490  16.570
   C    96.630  13.070  17.030
   C    96.670  12.890  18.580
   C    95.690  14.270  16.720
   N    96.230  11.740  16.440
   H    95.150  11.590  16.520
   C    96.770  11.420  15.100
   C    96.410  9.960  14.710
   C    96.270  12.340  13.960
   C    98.330  11.460  15.130
   C    102.940  13.520  15.190
   C    103.370  15.040  15.250
   C    102.320  15.830  16.030
   C    104.770  15.160  15.870
   O    105.070  15.940  16.770
   O    105.660  14.310  15.270
   C    107.080  14.430  15.560
   C    107.560  13.310  16.470
   C    108.270  12.130  15.750
   C    108.750  11.150  16.860
   C    107.220  11.320  14.930
   N    109.320  12.570  14.780
   H    110.330  12.290  15.070
   C    109.270  13.990  14.300
   C    110.070  15.010  15.160
   C    109.840  14.030  12.860
   C    107.810  14.470  14.210
   C    103.500  15.530  13.760
   C    103.490  17.050  13.240
   C    102.010  17.460  13.060
   C    104.230  16.890  11.890
   O    105.430  16.650  11.820
   O    103.400  16.910  10.800
   C    104.000  16.510  9.540
   C    104.850  17.620  8.930
   C    105.500  17.180  7.590
   C    106.670  16.220  7.890
   C    106.110  18.480  6.980
   N    104.460  16.670  6.650
   H    104.910  16.290  5.730
   C    103.430  15.720  7.180
   C    103.890  14.240  7.300
   C    102.200  15.750  6.220
   C    102.890  16.190  8.560
   C    104.230  18.070  14.200
   C    104.900  19.430  13.800
   C    105.990  19.250  12.710
   C    104.070  20.610  13.230
   O    104.450  21.770  13.330
   O    103.030  20.210  12.450
   C    102.460  21.230  11.590
   C    101.960  20.600  10.290
   C    100.430  20.700  10.020
   C    99.670  19.670  10.890
   C    100.210  20.210  8.560
   N    99.850  22.050  10.320
   H    99.580  22.630  9.440
   C    100.560  22.890  11.340
   C    101.490  23.980  10.740
   C    99.470  23.610  12.180
   C    101.390  22.030  12.320
   C    105.730  19.990  15.050
   C    105.140  20.440  16.430
   C    106.080  21.570  16.950
   C    103.770  21.160  16.330
   O    103.650  22.350  16.040
   O    102.720  20.370  16.690
   C    101.630  21.080  17.300
   C    100.550  21.490  16.300
   C    99.480  22.380  17.000
   C    99.970  23.860  16.900
   C    98.170  22.280  16.180
   N    99.360  22.060  18.460
   H    98.460  22.470  18.910
   C    99.600  20.640  18.860
   C    98.530  19.650  18.350
   C    99.640  20.520  20.410
   C    101.000  20.170  18.360
   C    105.070  19.290  17.520
   C    106.300  18.780  18.370
   C    107.460  18.320  17.480
   C    105.820  17.640  19.300
   O    104.720  17.640  19.850
   O    106.820  16.760  19.570
   C    106.670  15.870  20.720
   C    107.310  14.540  20.370
   C    107.420  13.580  21.590
   C    108.460  12.500  21.180
   C    106.060  12.870  21.770
   N    107.680  14.310  22.860
   O    108.370  13.480  23.820
   C    108.270  15.660  22.780
   C    109.710  15.700  22.210
   C    108.330  16.330  24.180
   C    107.320  16.550  21.930
   C    106.820  19.840  19.380
   H    103.790  10.950  15.860
   H    102.450  10.540  16.910
   H    102.120  10.940  15.250
   H    104.600  12.770  17.370
   H    103.340  12.290  18.490
   H    103.500  13.970  18.020
   H    98.970  11.630  17.190
   H    98.540  14.130  17.310
   H    98.020  14.100  15.670
   H    97.310  12.060  18.870
   H    95.680  12.680  18.980
   H    97.040  13.800  19.050
   H    96.110  15.190  17.130
   H    94.700  14.150  17.170
   H    95.570  14.440  15.650
   H    95.340  9.830  14.500
   H    96.940  9.650  13.810
   H    96.680  9.260  15.500
   H    96.640  13.360  14.080
   H    95.180  12.360  13.910
   H    96.630  11.970  13.000
   H    98.700  11.880  14.190
   H    98.780  10.460  15.200
   H    103.720  13.000  14.640
   H    102.060  13.450  14.550
   H    102.590  16.880  16.110
   H    102.230  15.480  17.060
   H    101.340  15.770  15.560
   H    107.260  15.380  16.080
   H    108.270  13.740  17.180
   H    106.730  12.920  17.070
   H    109.450  11.640  17.530
   H    107.910  10.830  17.470
   H    109.210  10.240  16.460
   H    107.690  10.450  14.470
   H    106.750  11.900  14.140
   H    106.410  10.950  15.570
   H    109.890  16.030  14.830
   H    109.810  14.980  16.210
   H    111.140  14.820  15.100
   H    110.910  13.820  12.850
   H    109.310  13.340  12.210
   H    109.740  15.020  12.420
   H    107.250  13.900  13.470
   H    107.760  15.490  13.830
   H    102.730  15.020  13.170
   H    104.400  15.060  13.370
   H    101.550  17.750  14.000
   H    101.880  18.280  12.350
   H    101.420  16.640  12.650
   H    104.590  15.610  9.720
   H    105.620  17.930  9.640
   H    104.230  18.510  8.800
   H    107.230  15.940  7.000
   H    106.370  15.300  8.370
   H    107.390  16.700  8.560
   H    105.320  19.180  6.700
   H    106.780  18.960  7.690
   H    106.700  18.260  6.090
   H    103.060  13.610  7.640
   H    104.690  14.110  8.020
   H    104.210  13.820  6.350
   H    101.840  16.770  6.080
   H    102.430  15.330  5.240
   H    101.380  15.150  6.620
   H    102.240  15.430  9.000
   H    102.280  17.080  8.440
   H    105.040  17.500  14.650
   H    103.540  18.310  15.010
   H    106.660  18.430  12.950
   H    106.590  20.160  12.620
   H    105.550  19.130  11.720
   H    103.270  21.910  11.300
   H    102.290  19.560  10.230
   H    102.470  21.110  9.470
   H    100.050  18.660  10.750
   H    98.610  19.660  10.650
   H    99.740  19.860  11.960
   H    99.150  20.190  8.300
   H    100.730  20.830  7.830
   H    100.580  19.200  8.410
   H    102.060  24.470  11.520
   H    102.210  23.550  10.040
   H    100.930  24.770  10.230
   H    98.780  22.900  12.640
   H    99.930  24.190  12.990
   H    98.880  24.280  11.560
   H    100.760  21.380  12.920
   H    101.880  22.660  13.060
   H    106.500  19.240  15.250
   H    106.320  20.830  14.690
   H    107.120  21.240  16.970
   H    105.800  21.940  17.940
   H    106.060  22.450  16.300
   H    102.020  21.950  17.830
   H    100.090  20.600  15.870
   H    100.990  22.030  15.460
   H    100.130  24.130  15.850
   H    100.910  24.020  17.410
   H    99.230  24.550  17.300
   H    98.370  22.490  15.130
   H    97.420  23.010  16.500
   H    97.720  21.290  16.230
   H    97.530  19.960  18.650
   H    98.700  18.650  18.760
   H    98.550  19.530  17.270
   H    100.350  21.230  20.840
   H    99.950  19.520  20.720
   H    98.660  20.690  20.870
   H    100.940  19.150  17.980
   H    101.700  20.080  19.190
   H    104.320  19.600  18.250
   H    104.600  18.430  17.040
   H    107.900  19.150  16.920
   H    108.280  17.890  18.050
   H    107.140  17.570  16.750
   H    105.610  15.700  20.920
   H    108.290  14.710  19.920
   H    106.740  14.080  19.560
   H    109.460  12.920  21.090
   H    108.220  12.070  20.210
   H    108.520  11.670  21.890
   H    106.090  12.110  22.550
   H    105.260  13.560  22.030
   H    105.760  12.370  20.850
   H    110.100  16.720  22.200
   H    110.390  15.090  22.800
   H    109.780  15.360  21.180
   H    108.600  17.380  24.090
   H    109.060  15.870  24.850
   H    107.370  16.300  24.690
   H    107.860  17.450  21.620
   H    106.500  16.910  22.560
   H    105.990  20.380  19.830
   H    107.390  19.370  20.180
   H    107.490  20.570  18.920
  