239
PTMA_CHAIN7_time0point005
 C    102.720  11.190  16.060
   C    102.640  12.690  16.520
   C    103.610  12.930  17.620
   C    101.190  12.830  16.940
   O    100.820  13.020  18.120
   O    100.280  12.620  15.910
   C    98.910  12.250  16.320
   C    98.040  13.470  16.580
   C    96.680  13.070  17.020
   C    96.680  12.880  18.610
   C    95.670  14.260  16.730
   N    96.230  11.750  16.410
   H    95.240  11.450  16.760
   C    96.750  11.410  15.080
   C    96.460  9.950  14.690
   C    96.280  12.340  14.010
   C    98.350  11.430  15.110
   C    102.930  13.530  15.190
   C    103.340  15.060  15.240
   C    102.320  15.800  16.060
   C    104.750  15.150  15.820
   O    105.100  15.940  16.720
   O    105.680  14.290  15.260
   C    107.110  14.460  15.550
   C    107.590  13.290  16.500
   C    108.280  12.110  15.750
   C    108.780  11.140  16.820
   C    107.210  11.290  14.940
   N    109.310  12.600  14.820
   H    110.320  12.250  15.020
   C    109.270  14.020  14.310
   C    110.100  15.010  15.140
   C    109.880  14.010  12.900
   C    107.790  14.510  14.240
   C    103.480  15.520  13.800
   C    103.520  17.050  13.270
   C    102.020  17.480  13.040
   C    104.220  16.920  11.900
   O    105.450  16.620  11.840
   O    103.420  16.950  10.810
   C    104.000  16.540  9.560
   C    104.850  17.620  8.940
   C    105.500  17.190  7.590
   C    106.670  16.250  7.870
   C    106.090  18.480  6.960
   N    104.440  16.690  6.660
   H    104.900  16.350  5.730
   C    103.410  15.710  7.190
   C    103.950  14.240  7.300
   C    102.220  15.730  6.210
   C    102.920  16.190  8.580
   C    104.210  18.070  14.220
   C    104.920  19.400  13.830
   C    106.040  19.280  12.720
   C    104.050  20.630  13.260
   O    104.490  21.770  13.350
   O    103.080  20.260  12.430
   C    102.500  21.230  11.550
   C    101.960  20.600  10.310
   C    100.420  20.690  10.000
   C    99.690  19.680  10.850
   C    100.190  20.230  8.590
   N    99.880  22.070  10.320
   H    99.580  22.640  9.440
   C    100.540  22.870  11.370
   C    101.450  24.000  10.720
   C    99.500  23.580  12.170
   C    101.400  22.040  12.290
   C    105.730  19.990  15.060
   C    105.140  20.460  16.440
   C    106.100  21.570  16.920
   C    103.770  21.150  16.330
   O    103.660  22.360  16.010
   O    102.740  20.390  16.700
   C    101.680  21.070  17.340
   C    100.600  21.490  16.320
   C    99.480  22.400  16.990
   C    99.950  23.870  16.860
   C    98.170  22.280  16.230
   N    99.360  22.040  18.440
   H    98.560  22.510  19.000
   C    99.630  20.640  18.840
   C    98.500  19.650  18.340
   C    99.630  20.570  20.410
   C    101.040  20.200  18.380
   C    105.130  19.290  17.510
   C    106.320  18.750  18.380
   C    107.490  18.300  17.450
   C    105.830  17.640  19.310
   O    104.770  17.630  19.880
   O    106.860  16.790  19.590
   C    106.690  15.910  20.720
   C    107.290  14.520  20.350
   C    107.430  13.620  21.580
   C    108.500  12.490  21.200
   C    106.080  12.860  21.750
   N    107.750  14.250  22.920
   O    108.370  13.540  23.750
   C    108.240  15.640  22.770
   C    109.710  15.700  22.210
   C    108.370  16.300  24.190
   C    107.300  16.560  21.970
   C    106.840  19.850  19.350
   H    103.770  10.970  15.860
   H    102.420  10.450  16.800
   H    101.990  11.050  15.270
   H    104.670  12.830  17.350
   H    103.450  12.280  18.480
   H    103.610  13.970  17.950
   H    99.100  11.720  17.250
   H    98.560  14.060  17.340
   H    97.950  14.170  15.760
   H    97.290  12.050  18.960
   H    95.710  12.630  19.030
   H    97.020  13.820  19.040
   H    96.160  15.160  17.100
   H    94.680  14.250  17.170
   H    95.640  14.450  15.650
   H    95.400  9.790  14.460
   H    96.980  9.610  13.800
   H    96.670  9.260  15.510
   H    96.710  13.310  14.240
   H    95.200  12.390  13.990
   H    96.650  11.970  13.050
   H    98.670  11.850  14.160
   H    98.860  10.470  15.230
   H    103.710  13.050  14.590
   H    101.970  13.410  14.690
   H    102.680  16.830  16.080
   H    102.300  15.540  17.120
   H    101.310  15.810  15.640
   H    107.270  15.390  16.090
   H    108.300  13.780  17.170
   H    106.770  12.870  17.080
   H    109.370  11.770  17.490
   H    107.940  10.850  17.450
   H    109.260  10.190  16.590
   H    107.700  10.440  14.460
   H    106.660  11.920  14.240
   H    106.450  10.880  15.600
   H    109.910  16.060  14.890
   H    109.800  15.050  16.190
   H    111.130  14.630  15.130
   H    110.970  14.000  12.880
   H    109.290  13.450  12.180
   H    109.810  14.980  12.410
   H    107.270  14.050  13.400
   H    107.800  15.540  13.900
   H    102.800  14.980  13.140
   H    104.380  15.040  13.430
   H    101.520  17.810  13.960
   H    101.770  18.190  12.250
   H    101.500  16.590  12.700
   H    104.640  15.660  9.640
   H    105.610  17.850  9.690
   H    104.250  18.530  8.830
   H    107.270  15.920  7.020
   H    106.520  15.270  8.330
   H    107.360  16.760  8.540
   H    105.260  19.060  6.570
   H    106.760  18.990  7.650
   H    106.780  18.190  6.160
   H    103.130  13.590  7.600
   H    104.680  14.200  8.100
   H    104.390  13.860  6.380
   H    101.850  16.750  6.040
   H    102.310  15.270  5.230
   H    101.430  15.140  6.680
   H    102.310  15.410  9.030
   H    102.370  17.120  8.400
   H    105.090  17.490  14.520
   H    103.650  18.280  15.130
   H    106.740  18.490  12.980
   H    106.470  20.280  12.700
   H    105.620  19.260  11.710
   H    103.300  21.900  11.230
   H    102.400  19.610  10.190
   H    102.440  21.090  9.460
   H    100.080  18.660  10.850
   H    98.610  19.690  10.680
   H    99.780  19.800  11.930
   H    99.140  20.130  8.350
   H    100.650  20.830  7.810
   H    100.600  19.260  8.300
   H    102.060  24.450  11.500
   H    102.210  23.510  10.100
   H    100.890  24.800  10.230
   H    98.790  22.950  12.700
   H    99.990  24.110  12.980
   H    98.940  24.190  11.460
   H    100.760  21.460  12.960
   H    101.970  22.620  13.010
   H    106.490  19.230  15.240
   H    106.470  20.740  14.790
   H    107.110  21.160  16.980
   H    106.000  22.040  17.900
   H    106.100  22.480  16.320
   H    102.040  21.920  17.920
   H    100.060  20.740  15.730
   H    100.970  22.160  15.550
   H    100.140  24.050  15.810
   H    100.940  24.070  17.270
   H    99.190  24.550  17.250
   H    98.340  22.540  15.190
   H    97.450  23.060  16.490
   H    97.670  21.310  16.220
   H    97.550  20.010  18.710
   H    98.690  18.660  18.750
   H    98.570  19.460  17.270
   H    100.300  21.350  20.760
   H    100.050  19.630  20.790
   H    98.640  20.590  20.860
   H    100.890  19.170  18.040
   H    101.640  19.960  19.260
   H    104.320  19.620  18.170
   H    104.550  18.470  17.070
   H    107.910  19.190  16.990
   H    108.300  17.860  18.040
   H    107.260  17.630  16.620
   H    105.640  15.700  20.930
   H    108.320  14.600  20.000
   H    106.810  14.080  19.470
   H    109.470  12.960  21.080
   H    108.290  12.060  20.220
   H    108.660  11.660  21.880
   H    106.010  12.040  22.470
   H    105.210  13.440  22.050
   H    105.810  12.400  20.800
   H    110.150  16.700  22.130
   H    110.300  14.950  22.740
   H    109.680  15.470  21.150
   H    108.570  17.370  24.120
   H    109.060  15.850  24.910
   H    107.470  16.320  24.800
   H    107.900  17.420  21.650
   H    106.450  16.930  22.540
   H    106.020  20.460  19.720
   H    107.370  19.420  20.200
   H    107.520  20.600  18.940
  