239
PTMA_CHAIN6_time5
 C    82.570  40.640  39.920
   C    83.700  39.550  40.060
   C    83.000  38.270  39.620
   C    84.100  39.380  41.540
   O    84.700  38.400  41.970
   O    83.730  40.390  42.320
   C    83.790  40.290  43.790
   C    84.890  41.030  44.480
   C    84.970  40.700  45.950
   C    85.670  39.330  46.050
   C    85.640  41.860  46.750
   N    83.610  40.540  46.540
   H    83.620  40.250  47.590
   C    82.380  40.380  45.760
   C    81.900  38.890  45.850
   C    81.390  41.170  46.590
   C    82.510  40.860  44.320
   C    84.890  39.740  39.060
   C    86.170  40.640  39.420
   C    87.240  39.670  40.080
   C    86.920  41.040  38.030
   O    88.130  41.340  38.030
   O    86.060  41.080  36.960
   C    86.350  41.650  35.730
   C    86.630  40.650  34.660
   C    86.880  41.350  33.280
   C    88.240  41.960  33.170
   C    86.760  40.350  32.160
   N    85.940  42.520  33.120
   H    85.810  42.900  32.100
   C    85.380  43.380  34.230
   C    86.270  44.560  34.510
   C    84.080  44.000  33.760
   C    85.120  42.520  35.410
   C    85.930  41.880  40.480
   C    86.750  43.210  40.690
   C    86.180  43.710  42.020
   C    86.440  44.200  39.540
   O    86.030  43.770  38.420
   O    86.240  45.470  39.940
   C    85.290  46.330  39.350
   C    86.000  47.470  38.580
   C    85.010  48.380  37.900
   C    84.390  47.640  36.680
   C    85.620  49.680  37.430
   N    83.910  48.770  38.850
   H    83.290  49.610  38.560
   C    83.510  48.030  40.040
   C    82.150  47.430  39.640
   C    83.300  49.100  41.210
   C    84.490  46.890  40.500
   C    88.290  42.870  40.950
   C    89.530  43.890  41.100
   C    89.450  45.110  40.110
   C    89.580  44.630  42.470
   O    90.550  44.590  43.180
   O    88.520  45.390  42.820
   C    88.380  46.130  44.110
   C    87.210  47.120  43.840
   C    86.220  47.410  45.000
   C    84.920  46.580  44.900
   C    85.860  48.880  45.030
   N    86.930  47.110  46.250
   H    86.830  47.780  47.110
   C    87.740  45.840  46.440
   C    89.040  46.340  47.110
   C    86.970  44.940  47.380
   C    87.940  45.130  45.150
   C    90.880  43.230  40.750
   C    91.600  41.970  41.430
   C    92.840  41.860  40.530
   C    91.980  42.090  42.950
   O    93.140  42.400  43.320
   O    91.050  41.640  43.830
   C    91.340  41.240  45.220
   C    91.220  42.490  46.090
   C    91.540  42.190  47.540
   C    92.960  42.690  47.860
   C    90.610  42.950  48.530
   N    91.460  40.710  47.880
   H    92.150  40.290  48.620
   C    90.650  39.740  47.150
   C    89.360  39.400  47.880
   C    91.540  38.530  46.950
   C    90.260  40.320  45.720
   C    90.740  40.680  41.240
   C    91.390  39.240  41.380
   C    92.590  39.070  42.400
   C    91.830  38.570  40.060
   O    92.900  38.000  39.860
   O    90.830  38.630  39.200
   C    90.910  37.900  38.000
   C    89.860  36.870  37.970
   C    89.820  35.930  36.780
   C    88.360  35.950  36.230
   C    90.180  34.480  37.250
   N    90.780  36.420  35.700
   O    91.140  35.660  34.850
   C    90.970  37.870  35.500
   C    89.980  38.350  34.450
   C    92.400  38.090  35.090
   C    90.800  38.750  36.760
   C    90.230  38.340  41.930
   H    82.870  41.600  40.330
   H    82.240  40.770  38.890
   H    81.650  40.460  40.490
   H    82.770  38.370  38.560
   H    82.100  38.060  40.200
   H    83.520  37.340  39.830
   H    83.830  39.240  44.090
   H    85.780  40.750  43.920
   H    84.680  42.080  44.280
   H    85.030  38.500  45.740
   H    86.010  39.060  47.050
   H    86.590  39.280  45.480
   H    86.650  42.000  46.380
   H    85.600  41.660  47.820
   H    85.110  42.810  46.670
   H    82.290  38.250  45.060
   H    82.100  38.460  46.830
   H    80.830  38.960  45.640
   H    81.570  42.250  46.520
   H    81.470  40.910  47.640
   H    80.360  41.040  46.260
   H    82.430  41.940  44.290
   H    81.710  40.500  43.680
   H    85.370  38.770  38.950
   H    84.400  40.060  38.130
   H    88.190  40.150  40.330
   H    87.470  38.940  39.310
   H    86.870  39.150  40.970
   H    87.200  42.330  35.810
   H    87.480  39.980  34.830
   H    85.810  39.940  34.650
   H    88.910  41.490  32.450
   H    88.220  43.040  33.050
   H    88.750  41.760  34.110
   H    86.460  40.760  31.200
   H    85.930  39.670  32.340
   H    87.630  39.700  32.010
   H    86.370  45.220  33.640
   H    85.860  45.250  35.250
   H    87.250  44.330  34.920
   H    83.560  44.540  34.550
   H    84.310  44.700  32.960
   H    83.290  43.320  33.420
   H    84.230  41.910  35.280
   H    85.000  43.230  36.230
   H    85.860  41.340  41.420
   H    84.950  42.280  40.210
   H    86.530  43.170  42.900
   H    86.490  44.730  42.240
   H    85.090  43.760  42.070
   H    84.680  45.750  38.660
   H    86.760  46.950  37.990
   H    86.560  48.080  39.290
   H    83.820  48.340  36.070
   H    83.750  46.780  36.890
   H    85.160  47.160  36.070
   H    86.550  49.360  36.970
   H    85.020  50.210  36.690
   H    85.920  50.360  38.230
   H    82.090  46.730  38.820
   H    81.420  48.210  39.390
   H    81.660  46.910  40.470
   H    84.290  49.240  41.640
   H    82.920  50.050  40.850
   H    82.750  48.710  42.070
   H    83.930  46.070  40.940
   H    85.210  47.240  41.240
   H    88.660  42.140  40.240
   H    88.350  42.320  41.890
   H    89.420  44.740  39.080
   H    90.370  45.700  40.110
   H    88.590  45.750  40.270
   H    89.270  46.700  44.360
   H    86.550  46.660  43.110
   H    87.590  48.020  43.370
   H    85.030  45.500  44.860
   H    84.280  46.960  44.110
   H    84.240  46.780  45.720
   H    85.250  49.210  45.870
   H    86.790  49.450  45.010
   H    85.170  49.150  44.230
   H    89.030  47.000  47.970
   H    89.630  45.450  47.360
   H    89.650  46.830  46.350
   H    87.020  45.340  48.400
   H    85.920  44.850  47.110
   H    87.470  43.970  47.370
   H    87.030  44.630  44.840
   H    88.700  44.370  45.340
   H    90.790  42.910  39.710
   H    91.610  44.040  40.870
   H    92.700  41.550  39.490
   H    93.610  41.170  40.880
   H    93.380  42.790  40.690
   H    92.310  40.770  45.320
   H    90.200  42.860  45.930
   H    91.850  43.250  45.630
   H    93.040  43.770  47.780
   H    93.670  42.260  47.160
   H    93.180  42.450  48.900
   H    90.770  44.020  48.460
   H    90.780  42.710  49.580
   H    89.570  42.650  48.420
   H    88.960  40.300  48.330
   H    89.580  38.730  48.720
   H    88.580  39.020  47.220
   H    92.310  38.800  46.220
   H    90.880  37.770  46.520
   H    91.970  38.130  47.870
   H    89.290  40.800  45.800
   H    90.140  39.510  45.000
   H    89.890  40.720  41.920
   H    90.400  40.750  40.200
   H    92.460  39.360  43.440
   H    92.680  37.990  42.520
   H    93.560  39.390  42.030
   H    91.880  37.410  37.950
   H    88.910  37.400  37.880
   H    89.720  36.310  38.890
   H    88.050  36.980  36.090
   H    87.690  35.540  36.990
   H    88.200  35.420  35.280
   H    89.570  34.170  38.100
   H    90.040  33.830  36.390
   H    91.200  34.520  37.620
   H    90.300  39.260  33.950
   H    89.740  37.600  33.690
   H    89.000  38.620  34.860
   H    92.600  39.080  34.700
   H    92.640  37.480  34.220
   H    93.110  37.710  35.830
   H    89.830  39.230  36.890
   H    91.530  39.560  36.760
   H    89.380  38.320  41.250
   H    90.500  37.280  41.920
   H    89.940  38.600  42.950
  