239
PTMA_CHAIN6_time0point5
 C    76.470  42.460  38.850
   C    77.990  42.490  39.170
   C    78.650  41.620  38.090
   C    78.200  41.810  40.580
   O    78.620  40.680  40.830
   O    77.770  42.580  41.550
   C    77.640  42.330  43.020
   C    78.920  42.500  43.860
   C    78.650  43.250  45.230
   C    79.620  42.780  46.230
   C    78.820  44.720  45.240
   N    77.320  42.910  45.740
   H    77.300  42.280  46.630
   C    76.160  42.840  44.890
   C    75.290  41.510  45.130
   C    75.230  44.090  45.310
   C    76.460  43.140  43.450
   C    78.470  44.030  39.140
   C    80.010  44.560  39.240
   C    80.800  43.780  40.310
   C    80.640  44.480  37.840
   O    81.590  43.720  37.500
   O    80.380  45.550  37.210
   C    80.720  45.800  35.810
   C    79.390  46.340  35.260
   C    79.440  46.730  33.740
   C    78.700  45.710  32.850
   C    79.010  48.280  33.580
   N    80.860  46.560  33.260
   H    80.920  46.850  32.210
   C    82.080  46.770  34.060
   C    83.020  45.600  33.750
   C    82.730  48.080  33.530
   C    81.740  46.850  35.550
   C    79.870  46.120  39.680
   C    81.090  47.100  40.180
   C    81.320  46.710  41.690
   C    80.660  48.550  39.870
   O    80.690  48.990  38.720
   O    80.270  49.300  40.980
   C    79.780  50.640  40.740
   C    80.940  51.600  40.570
   C    80.380  53.050  40.460
   C    80.730  53.630  39.070
   C    81.130  54.100  41.400
   N    78.920  53.200  40.690
   H    78.570  54.230  40.600
   C    78.110  52.320  41.460
   C    76.940  52.070  40.570
   C    77.640  53.120  42.730
   C    78.830  51.050  41.900
   C    82.390  46.770  39.390
   C    83.720  47.630  39.200
   C    83.520  48.840  38.310
   C    84.370  48.210  40.420
   O    85.560  48.360  40.480
   O    83.520  48.550  41.390
   C    84.030  49.020  42.610
   C    83.030  49.940  43.210
   C    82.920  49.970  44.750
   C    81.580  49.350  45.170
   C    82.990  51.420  45.240
   N    84.220  49.340  45.290
   H    84.450  49.600  46.330
   C    84.720  47.990  44.800
   C    86.220  47.970  44.850
   C    84.240  46.870  45.790
   C    84.190  47.800  43.420
   C    84.770  46.690  38.510
   C    85.540  45.400  39.150
   C    87.030  45.470  38.650
   C    85.520  45.350  40.690
   O    86.430  45.720  41.410
   O    84.480  44.700  41.120
   C    84.640  43.540  41.920
   C    84.630  43.850  43.380
   C    84.930  42.630  44.180
   C    86.480  42.600  44.110
   C    84.430  42.650  45.610
   N    84.350  41.400  43.610
   H    84.790  40.430  43.860
   C    83.500  41.360  42.370
   C    82.050  41.100  42.800
   C    84.030  40.240  41.510
   C    83.470  42.660  41.640
   C    84.830  44.030  38.590
   C    85.140  43.360  37.220
   C    84.680  44.230  36.090
   C    84.250  42.050  37.240
   O    83.620  41.600  38.230
   O    84.230  41.410  36.080
   C    83.150  40.590  35.760
   C    82.180  41.430  35.000
   C    81.360  40.810  33.840
   C    80.800  42.000  33.090
   C    80.210  39.860  34.280
   N    82.370  40.190  32.890
   O    82.020  39.780  31.750
   C    83.660  39.520  33.420
   C    84.820  40.450  33.020
   C    83.910  38.110  32.840
   C    83.620  39.360  34.980
   C    86.590  42.830  36.940
   H    76.180  42.900  37.900
   H    76.140  41.430  38.670
   H    75.910  43.010  39.610
   H    78.550  42.090  37.110
   H    78.250  40.620  37.960
   H    79.720  41.520  38.260
   H    77.380  41.270  43.030
   H    79.420  41.540  43.850
   H    79.620  43.070  43.260
   H    80.650  43.030  45.960
   H    79.570  41.700  46.400
   H    79.500  43.230  47.210
   H    79.810  44.970  44.880
   H    78.720  45.130  46.240
   H    78.070  45.260  44.660
   H    75.030  41.460  46.190
   H    74.360  41.560  44.570
   H    75.780  40.550  44.980
   H    75.810  45.010  45.320
   H    74.570  43.930  46.160
   H    74.450  44.200  44.560
   H    76.720  44.190  43.320
   H    75.570  42.930  42.850
   H    78.060  44.500  38.250
   H    78.010  44.400  40.060
   H    81.870  43.870  40.130
   H    80.670  42.700  40.210
   H    80.520  44.030  41.330
   H    80.960  44.840  35.350
   H    78.510  45.700  35.370
   H    79.280  47.270  35.830
   H    79.380  44.920  32.520
   H    77.860  45.260  33.370
   H    78.350  46.090  31.890
   H    78.850  48.600  32.550
   H    79.860  48.890  33.870
   H    78.100  48.550  34.120
   H    84.030  45.740  34.130
   H    82.710  44.640  34.160
   H    83.140  45.460  32.680
   H    82.050  48.710  32.950
   H    82.930  48.700  34.400
   H    83.650  47.980  32.950
   H    81.540  47.890  35.800
   H    82.610  46.580  36.160
   H    79.100  46.110  40.450
   H    79.320  46.620  38.890
   H    82.250  46.150  41.830
   H    81.320  47.560  42.370
   H    80.500  46.090  42.070
   H    79.120  50.710  39.870
   H    81.640  51.290  39.790
   H    81.440  51.520  41.530
   H    80.410  54.650  38.860
   H    80.330  52.910  38.350
   H    81.800  53.690  38.900
   H    81.380  53.740  42.400
   H    82.080  54.510  41.040
   H    80.590  55.010  41.640
   H    76.190  51.440  41.040
   H    77.350  51.670  39.640
   H    76.470  53.000  40.250
   H    78.500  53.380  43.340
   H    77.100  54.030  42.480
   H    76.890  52.500  43.220
   H    78.130  50.220  42.030
   H    79.300  51.160  42.870
   H    82.070  46.680  38.350
   H    82.770  45.770  39.620
   H    82.960  48.730  37.380
   H    84.530  49.130  38.030
   H    83.010  49.750  38.630
   H    84.960  49.530  42.350
   H    82.050  49.840  42.730
   H    83.380  50.920  42.900
   H    80.750  49.610  44.520
   H    81.460  49.450  46.250
   H    81.770  48.300  44.970
   H    82.730  51.480  46.300
   H    83.940  51.930  45.110
   H    82.320  52.100  44.720
   H    86.580  46.940  44.750
   H    86.630  48.570  44.030
   H    86.610  48.450  45.740
   H    83.150  46.820  45.840
   H    84.600  45.890  45.470
   H    84.570  46.950  46.830
   H    83.260  47.240  43.490
   H    84.800  47.030  42.940
   H    84.240  46.420  37.600
   H    85.580  47.330  38.160
   H    87.150  45.770  37.610
   H    87.560  44.580  38.990
   H    87.510  46.350  39.090
   H    85.560  43.000  41.720
   H    83.720  44.400  43.640
   H    85.350  44.650  43.520
   H    86.910  43.530  44.500
   H    86.840  42.300  43.130
   H    86.870  41.840  44.790
   H    84.700  43.550  46.160
   H    84.800  41.780  46.150
   H    83.340  42.540  45.550
   H    81.960  40.060  43.120
   H    81.360  41.240  41.960
   H    81.830  41.810  43.590
   H    84.950  40.450  40.950
   H    83.350  40.010  40.690
   H    84.150  39.290  42.040
   H    82.570  43.180  41.970
   H    83.390  42.460  40.570
   H    85.020  43.260  39.330
   H    83.750  44.200  38.650
   H    85.300  45.120  35.990
   H    84.870  43.710  35.150
   H    83.640  44.520  36.250
   H    82.740  40.070  36.630
   H    82.790  42.160  34.470
   H    81.510  42.060  35.580
   H    81.590  42.640  32.710
   H    80.410  42.700  33.830
   H    80.110  41.810  32.260
   H    79.590  39.460  33.480
   H    80.470  38.920  34.770
   H    79.550  40.360  34.990
   H    85.590  40.500  33.800
   H    85.290  40.030  32.130
   H    84.620  41.470  32.700
   H    84.860  37.780  33.250
   H    84.030  38.070  31.760
   H    83.150  37.390  33.150
   H    84.620  39.080  35.290
   H    82.910  38.540  35.070
   H    86.940  42.090  37.650
   H    86.680  42.430  35.930
   H    87.310  43.650  36.900
  