239
PTMA_CHAIN9_time16
 C    80.940  40.530  47.850
   C    81.640  40.640  49.280
   C    82.670  41.750  49.000
   C    82.320  39.270  49.620
   O    83.550  39.200  49.740
   O    81.560  38.260  49.410
   C    82.080  37.020  49.130
   C    81.740  36.040  50.240
   C    82.330  34.650  50.030
   C    83.760  34.590  50.490
   C    81.540  33.590  50.830
   N    82.280  34.230  48.570
   H    82.600  33.210  48.370
   C    82.020  35.110  47.420
   C    83.420  35.240  46.790
   C    81.090  34.370  46.380
   C    81.420  36.490  47.850
   C    80.560  41.180  50.320
   C    80.640  40.900  51.800
   C    82.110  41.390  52.250
   C    79.650  41.860  52.520
   O    79.850  42.140  53.670
   O    78.700  42.430  51.810
   C    77.650  43.190  52.340
   C    77.990  44.630  52.220
   C    76.920  45.520  52.900
   C    77.060  45.350  54.440
   C    77.230  46.920  52.350
   N    75.580  45.040  52.590
   H    74.770  45.760  52.730
   C    75.210  43.690  52.090
   C    74.580  43.010  53.240
   C    74.110  43.840  51.040
   C    76.380  42.970  51.520
   C    80.460  39.330  52.160
   C    79.410  38.730  53.200
   C    79.720  37.230  53.110
   C    77.950  38.920  52.740
   O    77.620  39.660  51.820
   O    77.120  38.050  53.360
   C    75.860  37.780  52.760
   C    74.820  38.730  53.230
   C    73.610  38.590  52.340
   C    73.740  39.280  50.990
   C    72.440  39.240  53.100
   N    73.230  37.160  52.110
   H    72.180  36.920  51.970
   C    74.170  36.000  52.230
   C    74.490  35.510  50.750
   C    73.460  34.890  53.030
   C    75.420  36.330  53.030
   C    79.790  39.160  54.700
   C    78.760  39.580  55.790
   C    77.600  40.510  55.310
   C    77.940  38.370  56.410
   O    78.170  37.250  56.000
   O    77.040  38.700  57.360
   C    76.440  37.670  58.180
   C    76.200  38.150  59.570
   C    75.750  36.970  60.440
   C    75.410  37.450  61.830
   C    76.880  35.930  60.620
   N    74.550  36.330  59.790
   H    73.890  35.780  60.460
   C    74.420  36.190  58.330
   C    74.940  34.870  57.940
   C    72.890  36.170  58.070
   C    75.110  37.310  57.520
   C    79.470  40.280  57.000
   C    80.770  39.760  57.860
   C    80.780  40.520  59.240
   C    80.600  38.240  58.110
   O    79.850  37.810  59.020
   O    81.340  37.400  57.350
   C    81.340  35.970  57.500
   C    81.200  35.330  56.150
   C    80.950  33.880  56.290
   C    79.450  33.630  56.350
   C    81.450  33.190  55.000
   N    81.570  33.280  57.510
   H    81.480  32.200  57.650
   C    82.660  33.960  58.270
   C    84.000  33.370  57.810
   C    82.580  33.600  59.810
   C    82.680  35.490  58.040
   C    82.060  40.140  56.950
   C    83.580  40.150  57.590
   C    84.130  38.900  58.200
   C    83.760  41.350  58.590
   O    83.910  41.220  59.820
   O    83.720  42.580  57.930
   C    84.130  43.780  58.690
   C    85.490  44.040  58.210
   C    86.180  45.360  58.540
   C    87.360  45.570  57.510
   C    86.870  45.070  59.940
   N    85.280  46.550  58.670
   O    85.730  47.640  58.720
   C    83.740  46.340  58.770
   C    83.050  47.380  57.840
   C    83.250  46.460  60.200
   C    83.300  44.990  58.220
   C    84.570  40.400  56.420
   H    81.650  40.250  47.070
   H    80.150  39.780  47.830
   H    80.490  41.490  47.580
   H    83.530  41.450  48.400
   H    83.090  42.080  49.950
   H    82.180  42.580  48.490
   H    83.150  37.060  48.890
   H    81.970  36.430  51.230
   H    80.660  35.990  50.290
   H    83.810  34.520  51.580
   H    84.380  35.460  50.270
   H    84.360  33.760  50.110
   H    80.530  33.460  50.450
   H    81.520  33.920  51.870
   H    82.010  32.610  50.840
   H    83.350  35.500  45.730
   H    84.020  36.000  47.290
   H    84.030  34.340  46.820
   H    80.070  34.270  46.760
   H    81.470  33.350  46.260
   H    80.980  34.770  45.370
   H    80.390  36.320  48.150
   H    81.550  37.240  47.080
   H    80.590  42.260  50.150
   H    79.590  40.820  49.980
   H    82.970  40.940  51.760
   H    82.340  41.090  53.270
   H    82.240  42.470  52.360
   H    77.360  42.780  53.310
   H    78.960  44.930  52.600
   H    78.110  44.900  51.170
   H    78.030  45.540  54.910
   H    76.390  45.980  55.030
   H    76.870  44.310  54.680
   H    78.260  47.180  52.580
   H    76.590  47.650  52.850
   H    77.130  47.010  51.270
   H    73.990  43.660  53.890
   H    73.980  42.140  52.960
   H    75.360  42.620  53.890
   H    73.190  44.200  51.500
   H    74.420  44.410  50.170
   H    73.780  42.870  50.690
   H    76.680  43.250  50.510
   H    76.260  41.890  51.440
   H    81.430  38.860  52.290
   H    80.030  38.960  51.230
   H    79.620  36.880  52.080
   H    80.790  37.090  53.270
   H    79.180  36.590  53.810
   H    75.890  37.820  51.670
   H    75.150  39.770  53.300
   H    74.680  38.240  54.190
   H    73.920  40.320  51.260
   H    72.870  39.230  50.350
   H    74.630  38.930  50.460
   H    71.560  39.260  52.460
   H    72.210  38.600  53.960
   H    72.550  40.270  53.450
   H    75.070  36.320  50.310
   H    73.630  35.360  50.110
   H    75.060  34.590  50.870
   H    72.600  34.490  52.490
   H    74.090  34.010  53.200
   H    73.150  35.300  54.000
   H    76.210  35.620  52.780
   H    75.350  36.240  54.120
   H    80.530  39.940  54.540
   H    80.430  38.380  55.120
   H    77.230  41.060  56.180
   H    76.700  40.110  54.840
   H    77.830  41.310  54.610
   H    77.170  36.870  58.110
   H    75.490  38.970  59.450
   H    77.180  38.570  59.790
   H    74.390  37.830  61.940
   H    76.190  38.090  62.260
   H    75.310  36.610  62.520
   H    76.450  35.040  61.090
   H    77.250  35.450  59.710
   H    77.760  36.330  61.130
   H    74.920  34.110  58.730
   H    74.440  34.490  57.040
   H    75.960  34.950  57.580
   H    72.800  36.140  56.980
   H    72.300  35.330  58.430
   H    72.500  37.110  58.450
   H    74.460  38.180  57.440
   H    75.280  36.990  56.490
   H    79.620  41.300  56.630
   H    78.750  40.560  57.770
   H    79.930  40.190  59.840
   H    80.690  41.580  59.030
   H    81.610  40.190  59.860
   H    80.570  35.600  58.180
   H    82.120  35.420  55.580
   H    80.380  35.850  55.650
   H    79.240  32.560  56.430
   H    78.900  34.120  55.550
   H    78.970  34.100  57.210
   H    81.460  32.100  55.040
   H    82.390  33.570  54.600
   H    80.800  33.460  54.160
   H    83.890  32.300  57.990
   H    84.830  33.690  58.450
   H    84.160  33.550  56.750
   H    83.530  33.960  60.210
   H    82.440  32.540  60.040
   H    81.780  34.130  60.320
   H    83.550  35.750  57.430
   H    82.920  36.020  58.960
   H    82.190  39.380  56.180
   H    82.030  41.100  56.430
   H    83.390  38.670  58.960
   H    84.140  38.030  57.540
   H    85.130  38.970  58.640
   H    84.030  43.590  59.760
   H    85.400  43.940  57.130
   H    86.060  43.150  58.490
   H    87.050  45.540  56.470
   H    88.030  44.730  57.670
   H    87.880  46.520  57.650
   H    86.110  44.950  60.710
   H    87.480  44.180  60.050
   H    87.460  45.960  60.160
   H    81.990  47.210  57.690
   H    83.150  48.390  58.240
   H    83.470  47.460  56.830
   H    83.680  45.680  60.830
   H    82.170  46.370  60.320
   H    83.480  47.450  60.590
   H    83.070  45.080  57.160
   H    82.280  44.840  58.580
   H    84.250  41.300  55.890
   H    85.590  40.610  56.750
   H    84.680  39.610  55.680
  