239
PTMA_CHAIN1_time0point005
 C    92.430  25.390  76.810
   C    92.460  26.670  76.010
   C    91.060  27.240  76.030
   C    92.810  26.250  74.560
   O    92.030  26.240  73.620
   O    94.030  25.670  74.440
   C    94.340  24.800  73.280
   C    94.750  25.600  72.070
   C    94.900  24.660  70.890
   C    93.560  24.480  70.200
   C    95.890  25.410  69.890
   N    95.420  23.320  71.310
   H    95.600  22.690  70.430
   C    96.220  23.240  72.620
   C    96.460  21.710  72.980
   C    97.650  23.960  72.470
   C    95.450  23.850  73.760
   C    93.540  27.570  76.650
   C    93.640  29.140  76.430
   C    93.640  29.500  74.930
   C    92.380  29.800  77.150
   O    91.670  30.640  76.610
   O    92.310  29.370  78.450
   C    91.450  30.030  79.350
   C    90.180  29.180  79.710
   C    90.200  28.390  80.990
   C    88.900  27.660  81.140
   C    91.240  27.270  80.860
   N    90.650  29.230  82.140
   H    89.950  29.420  82.950
   C    91.360  30.500  81.910
   C    90.430  31.770  81.710
   C    92.370  30.870  83.000
   C    92.200  30.350  80.650
   C    94.960  29.680  77.070
   C    95.610  31.100  76.840
   C    96.580  30.860  75.620
   C    96.390  31.200  78.150
   O    95.860  31.520  79.210
   O    97.690  30.950  78.080
   C    98.440  30.850  79.340
   C    98.850  32.200  79.960
   C    99.490  32.110  81.300
   C    98.540  31.640  82.370
   C    100.050  33.540  81.660
   N    100.720  31.240  81.150
   H    101.320  31.250  82.060
   C    100.600  29.950  80.390
   C    100.010  28.750  81.210
   C    101.990  29.520  79.900
   C    99.760  30.110  79.100
   C    94.650  32.310  76.590
   C    94.910  33.850  76.820
   C    95.280  34.100  78.340
   C    96.080  34.580  76.090
   O    96.060  35.780  75.910
   O    97.130  33.800  75.790
   C    98.340  34.520  75.450
   C    99.590  33.780  75.950
   C    100.550  33.260  74.860
   C    100.010  32.020  74.170
   C    101.850  32.780  75.580
   N    100.840  34.290  73.780
   H    101.860  34.690  73.760
   C    99.780  35.350  73.500
   C    100.080  36.690  74.190
   C    99.780  35.580  71.960
   C    98.360  34.880  73.930
   C    93.570  34.630  76.650
   C    92.750  34.770  75.290
   C    92.120  36.190  75.380
   C    93.650  34.890  73.990
   O    94.200  35.960  73.700
   O    93.730  33.760  73.290
   C    93.850  33.990  71.890
   C    95.330  33.990  71.450
   C    95.370  34.340  69.950
   C    95.520  35.870  69.890
   C    96.670  33.740  69.350
   N    94.140  33.890  69.210
   H    94.060  34.060  68.140
   C    93.320  32.730  69.700
   C    94.180  31.400  69.420
   C    92.020  32.630  68.900
   C    93.070  32.890  71.170
   C    91.650  33.680  75.110
   C    90.230  33.700  75.830
   C    90.340  33.710  77.360
   C    89.460  32.440  75.360
   O    89.480  31.970  74.180
   O    88.540  32.050  76.270
   C    87.510  31.160  75.870
   C    87.230  30.170  76.980
   C    85.950  29.330  76.820
   C    85.590  28.720  78.240
   C    86.250  28.080  75.860
   N    84.760  30.020  76.080
   O    83.610  29.580  76.380
   C    84.850  31.510  76.110
   C    84.700  32.130  77.530
   C    83.780  32.170  75.220
   C    86.260  31.960  75.520
   C    89.360  34.850  75.340
   H    91.930  25.530  77.770
   H    91.790  24.690  76.280
   H    93.430  24.960  76.790
   H    90.790  27.500  77.050
   H    90.340  26.540  75.620
   H    91.030  28.140  75.410
   H    93.410  24.310  72.990
   H    94.030  26.400  71.890
   H    95.640  26.190  72.280
   H    92.850  24.040  70.900
   H    93.560  23.910  69.270
   H    93.150  25.480  70.000
   H    95.570  26.440  69.780
   H    96.020  24.880  68.940
   H    96.880  25.550  70.310
   H    97.010  21.200  72.190
   H    97.010  21.850  73.900
   H    95.500  21.200  73.030
   H    97.470  25.030  72.380
   H    98.300  23.560  71.690
   H    98.260  23.700  73.330
   H    96.140  24.260  74.500
   H    94.940  23.080  74.330
   H    93.570  27.440  77.730
   H    94.540  27.260  76.340
   H    93.590  30.540  74.580
   H    92.690  29.220  74.470
   H    94.460  29.070  74.360
   H    91.060  30.950  78.910
   H    89.350  29.880  79.720
   H    90.090  28.580  78.800
   H    88.060  28.340  81.280
   H    88.760  27.090  80.230
   H    88.940  26.920  81.940
   H    91.480  26.630  81.710
   H    92.270  27.630  80.760
   H    90.960  26.630  80.020
   H    90.920  32.700  81.410
   H    89.590  31.690  81.030
   H    89.920  31.970  82.650
   H    91.750  30.970  83.890
   H    92.910  29.920  82.960
   H    93.020  31.730  82.860
   H    93.020  29.650  80.810
   H    92.640  31.330  80.470
   H    95.760  28.940  77.070
   H    94.730  29.550  78.120
   H    96.080  30.930  74.650
   H    97.330  31.650  75.590
   H    97.140  29.930  75.690
   H    97.840  30.310  80.070
   H    97.870  32.670  80.040
   H    99.500  32.850  79.370
   H    99.080  31.660  83.310
   H    98.170  30.620  82.200
   H    97.750  32.380  82.480
   H    100.780  33.810  80.900
   H    99.280  34.310  81.650
   H    100.470  33.610  82.660
   H    99.930  27.770  80.740
   H    98.980  28.890  81.530
   H    100.700  28.570  82.040
   H    102.460  30.330  79.350
   H    102.720  29.480  80.700
   H    101.980  28.580  79.330
   H    99.530  29.180  78.570
   H    100.340  30.710  78.400
   H    93.720  32.180  77.160
   H    94.190  32.210  75.600
   H    94.690  33.590  79.110
   H    95.220  35.180  78.480
   H    96.300  33.830  78.590
   H    98.250  35.390  76.100
   H    99.250  33.030  76.670
   H    99.990  34.540  76.620
   H    99.890  31.200  74.880
   H    100.790  31.460  73.650
   H    99.130  32.170  73.540
   H    102.580  32.440  74.850
   H    102.400  33.560  76.090
   H    101.520  32.000  76.270
   H    99.210  37.310  73.970
   H    100.320  36.770  75.250
   H    100.900  37.210  73.690
   H    99.490  34.650  71.480
   H    98.870  36.160  71.770
   H    100.730  35.970  71.610
   H    98.050  33.970  73.430
   H    97.710  35.720  73.670
   H    92.940  34.240  77.440
   H    93.660  35.670  76.970
   H    91.680  36.140  76.380
   H    91.320  36.360  74.660
   H    92.850  37.000  75.490
   H    93.440  34.930  71.530
   H    95.570  32.960  71.710
   H    95.960  34.680  72.020
   H    96.330  36.140  70.560
   H    94.580  36.230  70.310
   H    95.690  36.210  68.870
   H    97.460  33.900  70.090
   H    96.900  34.070  68.330
   H    96.690  32.650  69.240
   H    94.400  31.310  68.350
   H    93.550  30.530  69.580
   H    95.080  31.340  70.020
   H    91.510  33.580  69.000
   H    91.320  31.890  69.300
   H    92.140  32.420  67.830
   H    93.200  31.910  71.640
   H    92.000  33.050  71.300
   H    91.400  33.720  74.050
   H    92.130  32.700  75.140
   H    90.650  34.700  77.690
   H    89.380  33.590  77.870
   H    90.940  32.850  77.640
   H    87.840  30.500  75.070
   H    87.320  30.620  77.970
   H    88.050  29.460  77.120
   H    85.120  29.450  78.890
   H    86.410  28.240  78.790
   H    84.800  27.980  78.130
   H    85.470  27.320  75.850
   H    86.440  28.420  74.840
   H    87.150  27.560  76.210
   H    84.620  33.220  77.520
   H    83.770  31.840  78.030
   H    85.480  31.860  78.250
   H    83.890  33.260  75.180
   H    82.850  31.840  75.680
   H    83.770  31.650  74.270
   H    86.420  33.010  75.770
   H    86.190  31.980  74.430
   H    89.390  34.890  74.250
   H    88.310  34.670  75.580
   H    89.460  35.870  75.710
  