239
PTMA_CHAIN5_time0point5
 C    89.970  64.920  70.150
   C    90.990  65.740  69.340
   C    90.240  66.990  68.760
   C    91.200  64.700  68.190
   O    90.230  64.370  67.510
   O    92.310  63.980  68.340
   C    92.650  62.770  67.650
   C    92.890  63.020  66.200
   C    93.420  61.680  65.430
   C    92.100  61.100  64.710
   C    94.450  62.010  64.370
   N    94.000  60.590  66.270
   O    94.050  59.440  65.790
   C    94.240  60.730  67.700
   C    93.370  59.730  68.510
   C    95.730  60.500  67.960
   C    93.910  62.250  68.230
   C    92.180  66.080  70.360
   C    93.140  67.310  70.170
   C    93.870  67.260  68.820
   C    92.470  68.640  70.460
   O    92.760  69.750  69.970
   O    91.450  68.480  71.280
   C    91.030  69.540  72.180
   C    89.580  69.220  72.550
   C    89.230  69.230  74.090
   C    87.900  69.870  74.370
   C    89.130  67.770  74.590
   N    90.220  69.920  75.000
   O    90.010  70.070  76.240
   C    91.530  70.410  74.500
   C    91.350  71.820  73.980
   C    92.650  70.490  75.520
   C    92.050  69.510  73.320
   C    94.240  67.180  71.320
   C    95.660  67.920  71.450
   C    96.640  67.140  70.600
   C    95.960  67.800  72.980
   O    95.110  67.950  73.890
   O    97.200  67.360  73.300
   C    97.520  67.120  74.680
   C    97.940  68.330  75.440
   C    98.130  68.050  76.960
   C    96.810  68.210  77.660
   C    99.090  69.110  77.520
   N    98.500  66.670  77.210
   O    98.650  66.320  78.430
   C    99.230  65.860  76.200
   C    99.060  64.350  76.580
   C    100.800  66.040  76.130
   C    98.610  66.120  74.740
   C    95.690  69.520  71.080
   C    96.560  70.660  71.620
   C    96.150  70.860  73.090
   C    98.090  70.520  71.580
   O    98.700  71.330  72.330
   O    98.610  69.550  70.820
   C    99.990  69.470  70.740
   C    100.620  68.310  71.540
   C    102.140  68.100  71.260
   C    102.370  66.740  70.510
   C    102.870  67.900  72.520
   N    102.690  69.280  70.390
   O    103.940  69.580  70.590
   C    101.890  69.860  69.300
   C    101.910  71.430  69.340
   C    102.510  69.470  67.910
   C    100.420  69.350  69.270
   C    96.280  72.170  71.060
   C    96.080  72.630  69.550
   C    96.530  74.110  69.580
   C    97.070  71.900  68.550
   O    98.300  72.000  68.760
   O    96.550  71.430  67.350
   C    97.280  71.680  66.080
   C    97.940  70.350  65.660
   C    98.670  70.370  64.290
   C    100.050  70.960  64.730
   C    98.940  69.030  63.670
   N    97.940  71.190  63.280
   O    98.490  71.170  62.150
   C    96.870  72.250  63.580
   C    95.680  72.180  62.520
   C    97.290  73.740  63.420
   C    96.240  71.910  65.010
   C    94.550  72.570  68.960
   C    93.300  73.440  69.420
   C    93.230  73.560  70.990
   C    91.980  72.750  68.890
   O    92.030  72.070  67.890
   O    90.820  73.190  69.550
   C    89.530  72.880  68.880
   C    88.890  71.720  69.570
   C    87.630  71.170  68.910
   C    86.610  70.730  69.960
   C    87.990  69.890  68.090
   N    87.020  72.200  68.010
   O    85.980  71.820  67.310
   C    87.450  73.600  67.730
   C    86.280  74.590  67.950
   C    88.030  73.640  66.230
   C    88.600  74.070  68.780
   C    93.320  74.900  68.960
   H    89.690  65.370  71.110
   H    89.030  64.780  69.620
   H    90.280  63.880  70.310
   H    89.820  67.580  69.570
   H    89.400  66.740  68.100
   H    90.960  67.610  68.240
   H    91.800  62.100  67.780
   H    92.170  63.500  65.540
   H    93.730  63.720  66.150
   H    91.290  60.950  65.420
   H    92.350  60.240  64.090
   H    91.880  61.780  63.880
   H    94.170  62.860  63.750
   H    94.600  61.200  63.660
   H    95.380  62.290  64.880
   H    93.430  58.780  67.960
   H    93.800  59.500  69.480
   H    92.300  59.900  68.630
   H    96.340  61.120  67.310
   H    95.790  59.430  67.760
   H    96.100  60.740  68.960
   H    94.810  62.840  68.040
   H    93.800  62.100  69.300
   H    91.750  66.150  71.360
   H    92.750  65.150  70.390
   H    94.520  68.110  68.610
   H    93.240  67.390  67.940
   H    94.250  66.260  68.630
   H    91.140  70.430  71.580
   H    88.940  70.010  72.150
   H    89.190  68.280  72.170
   H    87.930  70.920  74.100
   H    87.060  69.460  73.800
   H    87.780  69.700  75.440
   H    88.950  67.740  75.670
   H    90.070  67.220  74.490
   H    88.330  67.240  74.080
   H    92.250  72.270  73.580
   H    90.500  71.920  73.300
   H    91.150  72.490  74.820
   H    92.500  71.240  76.300
   H    92.840  69.560  76.070
   H    93.600  70.740  75.050
   H    92.390  68.530  73.680
   H    93.010  69.950  73.050
   H    94.400  66.110  71.430
   H    93.700  67.340  72.250
   H    96.520  67.320  69.540
   H    97.710  67.300  70.710
   H    96.430  66.070  70.660
   H    96.610  66.780  75.180
   H    97.320  69.230  75.360
   H    98.930  68.700  75.170
   H    96.860  67.960  78.720
   H    96.140  67.550  77.130
   H    96.540  69.270  77.710
   H    100.130  68.820  77.440
   H    99.040  70.030  76.940
   H    98.740  69.530  78.460
   H    99.500  63.560  75.950
   H    98.010  64.080  76.570
   H    99.400  64.350  77.610
   H    101.100  66.960  75.620
   H    101.220  66.080  77.140
   H    101.180  65.240  75.490
   H    98.390  65.060  74.620
   H    99.440  66.320  74.060
   H    94.680  69.870  71.260
   H    95.800  69.570  69.990
   H    95.090  70.730  73.280
   H    96.450  71.840  73.450
   H    96.670  70.190  73.780
   H    100.430  70.360  71.190
   H    100.080  67.380  71.390
   H    100.580  68.600  72.600
   H    101.750  65.980  70.980
   H    103.410  66.410  70.440
   H    102.010  66.660  69.490
   H    103.930  67.680  72.400
   H    102.670  68.610  73.330
   H    102.450  67.050  73.060
   H    102.920  71.820  69.450
   H    101.420  71.850  68.460
   H    101.250  71.780  70.130
   H    102.670  68.410  67.770
   H    101.960  69.850  67.050
   H    103.460  69.950  67.660
   H    100.570  68.380  68.800
   H    99.770  69.980  68.660
   H    95.500  72.740  71.560
   H    97.200  72.680  71.350
   H    96.190  74.780  70.370
   H    96.190  74.560  68.650
   H    97.620  74.200  69.570
   H    97.920  72.500  66.400
   H    97.240  69.530  65.550
   H    98.630  69.890  66.370
   H    100.550  70.440  65.550
   H    100.150  72.010  65.020
   H    100.700  70.760  63.880
   H    98.980  68.110  64.270
   H    99.790  69.020  63.000
   H    98.100  68.700  63.050
   H    95.910  72.400  61.480
   H    94.880  72.860  62.830
   H    95.100  71.270  62.650
   H    98.200  74.060  63.930
   H    96.470  74.370  63.760
   H    97.500  73.860  62.360
   H    95.640  71.020  64.830
   H    95.620  72.780  65.230
   H    94.610  72.720  67.890
   H    94.290  71.520  69.110
   H    93.990  74.260  71.360
   H    92.240  73.840  71.360
   H    93.370  72.580  71.450
   H    89.750  72.600  67.850
   H    88.550  72.030  70.560
   H    89.630  70.960  69.810
   H    86.470  71.520  70.700
   H    86.830  69.810  70.500
   H    85.660  70.510  69.490
   H    87.140  69.510  67.530
   H    88.840  70.050  67.430
   H    88.330  69.100  68.760
   H    86.500  75.550  67.470
   H    85.350  74.280  67.480
   H    85.980  74.820  68.970
   H    89.110  73.640  66.070
   H    87.600  74.520  65.750
   H    87.700  72.760  65.690
   H    88.050  74.130  69.720
   H    88.990  75.070  68.600
   H    93.240  75.040  67.880
   H    92.400  75.280  69.400
   H    94.190  75.450  69.320
  