239
PTMA_CHAIN10_time5
 C    93.990  79.800  68.380
   C    93.860  81.080  67.440
   C    95.250  81.800  67.590
   C    92.680  81.840  68.080
   O    92.690  83.040  68.410
   O    91.540  81.110  68.040
   C    90.430  81.350  68.870
   C    89.210  81.450  68.000
   C    87.950  81.540  68.790
   C    87.630  82.950  69.430
   C    86.690  81.160  68.020
   N    88.090  80.610  69.920
   H    87.160  80.190  70.290
   C    89.260  80.050  70.570
   C    89.470  80.940  71.770
   C    88.940  78.570  70.950
   C    90.430  80.060  69.660
   C    93.450  80.710  65.980
   C    93.450  81.770  64.780
   C    92.560  82.980  65.130
   C    94.870  82.180  64.430
   O    95.210  83.350  64.270
   O    95.710  81.120  64.270
   C    96.910  81.290  63.550
   C    98.080  81.560  64.510
   C    99.450  81.580  63.850
   C    99.830  83.100  63.700
   C    100.450  80.880  64.810
   N    99.400  80.940  62.510
   H    100.250  81.130  61.860
   C    98.410  79.980  61.980
   C    97.940  80.370  60.590
   C    99.040  78.570  61.930
   C    97.180  79.960  62.890
   C    92.830  81.050  63.510
   C    92.550  81.770  62.090
   C    91.100  82.320  62.070
   C    92.830  80.620  61.050
   O    93.920  80.080  61.070
   O    91.700  80.130  60.410
   C    91.700  78.860  59.750
   C    92.210  78.810  58.310
   C    92.390  77.390  57.830
   C    93.760  76.760  58.120
   C    92.180  77.430  56.280
   N    91.350  76.540  58.370
   H    91.460  75.470  58.260
   C    90.130  76.980  59.070
   C    89.840  75.920  60.160
   C    89.000  76.970  58.080
   C    90.260  78.350  59.800
   C    93.630  82.930  61.840
   C    93.850  83.770  60.500
   C    94.910  83.100  59.570
   C    92.570  84.000  59.580
   O    92.090  85.110  59.380
   O    92.400  83.020  58.690
   C    91.410  83.140  57.660
   C    91.870  82.340  56.460
   C    90.820  82.390  55.350
   C    90.480  80.970  54.870
   C    91.220  83.270  54.140
   N    89.560  83.050  55.840
   H    89.040  83.670  55.110
   C    88.960  82.900  57.170
   C    88.270  84.190  57.570
   C    87.950  81.740  57.170
   C    90.000  82.540  58.160
   C    94.550  85.090  60.960
   C    93.930  86.530  61.610
   C    94.380  87.650  60.630
   C    92.440  86.520  61.910
   O    91.940  85.580  62.490
   O    91.820  87.710  61.650
   C    90.420  87.850  61.870
   C    90.220  89.020  62.690
   C    88.720  89.120  63.070
   C    88.440  88.250  64.340
   C    88.440  90.550  63.440
   N    87.860  88.570  61.940
   H    86.870  88.170  62.160
   C    88.360  88.460  60.510
   C    88.110  89.730  59.590
   C    87.540  87.340  59.900
   C    89.810  87.970  60.460
   C    94.660  86.720  63.010
   C    94.510  87.840  64.070
   C    94.390  89.250  63.410
   C    95.830  87.910  64.970
   O    96.110  88.870  65.670
   O    96.550  86.730  65.030
   C    97.650  86.650  65.900
   C    97.790  85.250  66.440
   C    98.880  85.000  67.480
   C    99.170  83.530  67.720
   C    98.560  85.660  68.880
   N    100.160  85.610  66.960
   O    101.300  85.170  67.310
   C    100.190  86.920  66.150
   C    101.430  86.920  65.230
   C    100.360  88.130  67.000
   C    99.000  86.970  65.190
   C    93.330  87.500  65.040
   H    94.750  79.070  68.110
   H    94.150  80.170  69.390
   H    93.090  79.200  68.430
   H    96.120  81.290  67.170
   H    95.500  82.080  68.620
   H    95.270  82.780  67.110
   H    90.510  82.150  69.600
   H    89.310  82.360  67.410
   H    89.170  80.600  67.320
   H    88.550  83.430  69.770
   H    86.950  82.950  70.280
   H    87.140  83.560  68.670
   H    86.620  81.800  67.150
   H    85.720  81.290  68.520
   H    86.840  80.190  67.550
   H    88.550  80.930  72.360
   H    90.370  80.670  72.310
   H    89.530  81.980  71.480
   H    87.940  78.510  71.380
   H    89.710  78.010  71.480
   H    88.920  78.040  69.990
   H    90.450  79.220  68.960
   H    91.320  79.970  70.280
   H    93.970  79.770  65.790
   H    92.410  80.390  66.010
   H    92.290  83.620  64.290
   H    93.040  83.650  65.840
   H    91.600  82.670  65.540
   H    96.690  82.030  62.780
   H    97.860  82.430  65.130
   H    98.080  80.720  65.200
   H    100.730  83.180  63.090
   H    99.070  83.680  63.170
   H    100.000  83.500  64.700
   H    100.500  79.800  64.670
   H    100.080  81.090  65.820
   H    101.420  81.350  64.700
   H    97.630  81.420  60.600
   H    98.630  80.240  59.750
   H    97.230  79.670  60.170
   H    100.050  78.560  61.500
   H    99.130  78.150  62.940
   H    98.400  77.940  61.320
   H    97.320  79.160  63.610
   H    96.290  79.660  62.330
   H    91.900  80.580  63.840
   H    93.550  80.240  63.450
   H    90.510  82.080  61.180
   H    90.510  81.990  62.920
   H    90.980  83.400  62.110
   H    92.250  78.130  60.340
   H    93.130  79.410  58.340
   H    91.510  79.350  57.670
   H    94.040  76.010  57.380
   H    93.820  76.380  59.140
   H    94.470  77.580  58.000
   H    91.900  76.460  55.850
   H    91.390  78.120  55.990
   H    93.120  77.790  55.860
   H    88.960  76.250  60.700
   H    90.640  75.720  60.870
   H    89.610  74.940  59.740
   H    88.080  77.160  58.640
   H    89.130  77.810  57.390
   H    88.880  76.090  57.450
   H    90.180  78.250  60.890
   H    89.530  79.090  59.470
   H    94.630  82.550  62.040
   H    93.370  83.690  62.590
   H    95.860  82.920  60.080
   H    95.180  83.590  58.630
   H    94.590  82.100  59.270
   H    91.270  84.190  57.440
   H    92.010  81.320  56.820
   H    92.870  82.640  56.170
   H    90.410  80.270  55.700
   H    91.310  80.620  54.260
   H    89.550  81.000  54.290
   H    91.920  84.050  54.440
   H    91.690  82.720  53.330
   H    90.450  83.880  53.660
   H    87.490  84.500  56.870
   H    87.800  84.270  58.550
   H    88.960  85.020  57.680
   H    88.420  80.780  56.940
   H    87.470  81.680  58.150
   H    87.130  81.920  56.480
   H    90.090  81.460  58.280
   H    89.780  82.750  59.210
   H    95.460  84.860  61.520
   H    95.090  85.360  60.050
   H    95.460  87.680  60.520
   H    93.940  88.640  60.810
   H    94.050  87.350  59.640
   H    90.100  86.940  62.390
   H    90.590  89.940  62.240
   H    90.850  89.020  63.580
   H    88.290  88.870  65.230
   H    89.250  87.550  64.540
   H    87.580  87.580  64.380
   H    89.390  91.030  63.670
   H    87.710  90.620  64.250
   H    87.980  91.160  62.650
   H    88.020  89.530  58.520
   H    88.910  90.470  59.690
   H    87.170  90.190  59.880
   H    86.470  87.550  59.910
   H    87.740  86.450  60.500
   H    87.840  87.040  58.890
   H    90.380  88.730  59.920
   H    89.980  87.110  59.810
   H    94.490  85.850  63.650
   H    95.730  86.690  62.770
   H    93.420  89.380  62.920
   H    94.470  89.970  64.220
   H    95.270  89.440  62.800
   H    97.560  87.300  66.770
   H    97.990  84.570  65.610
   H    96.770  85.010  66.740
   H    99.840  83.190  66.930
   H    98.330  82.870  67.950
   H    99.810  83.500  68.610
   H    99.350  85.540  69.620
   H    98.430  86.740  68.820
   H    97.730  85.210  69.420
   H    101.530  87.770  64.550
   H    102.320  86.990  65.850
   H    101.450  86.070  64.560
   H    99.430  88.420  67.490
   H    100.640  88.990  66.400
   H    101.060  88.000  67.830
   H    99.130  86.310  64.330
   H    98.930  87.930  64.670
   H    93.430  86.500  65.460
   H    93.410  88.160  65.900
   H    92.340  87.640  64.600
  