239
PTMA_CHAIN3_time12
 C    88.120  52.850  55.260
   C    89.580  52.740  55.710
   C    90.350  51.980  54.660
   C    89.530  51.860  56.980
   O    89.940  50.680  57.050
   O    89.090  52.490  58.090
   C    88.840  51.810  59.270
   C    90.050  51.810  60.120
   C    89.830  50.970  61.340
   C    89.660  49.470  61.200
   C    91.130  51.140  62.290
   N    88.630  51.550  61.990
   H    88.800  52.170  62.870
   C    87.320  51.810  61.230
   C    86.430  50.590  60.950
   C    86.580  52.760  62.140
   C    87.720  52.590  59.980
   C    90.020  54.280  56.070
   C    91.540  54.620  56.390
   C    91.810  53.790  57.590
   C    92.530  54.210  55.270
   O    93.710  53.910  55.600
   O    92.050  54.320  54.010
   C    92.810  54.200  52.790
   C    93.190  52.770  52.420
   C    94.200  52.690  51.220
   C    95.600  53.180  51.730
   C    94.250  51.230  50.760
   N    93.820  53.610  50.100
   O    94.370  53.460  48.970
   C    92.830  54.750  50.230
   C    93.550  56.060  49.930
   C    91.800  54.460  49.090
   C    92.080  54.810  51.610
   C    91.670  56.120  56.780
   C    92.310  57.350  55.970
   C    91.800  58.580  56.710
   C    91.660  57.390  54.510
   O    92.430  57.500  53.540
   O    90.310  57.380  54.460
   C    89.640  57.580  53.230
   C    88.850  58.840  53.300
   C    88.120  59.180  52.050
   C    89.070  59.750  50.900
   C    87.010  60.210  52.330
   N    87.480  57.960  51.470
   H    86.660  58.100  50.770
   C    87.910  56.580  51.740
   C    88.770  56.050  50.580
   C    86.650  55.670  51.810
   C    88.540  56.530  53.060
   C    93.950  57.160  55.840
   C    94.900  58.430  55.790
   C    94.570  59.360  54.560
   C    94.870  59.260  57.120
   O    94.420  58.720  58.190
   O    95.290  60.550  56.910
   C    95.210  61.580  57.930
   C    96.370  61.490  58.900
   C    96.160  62.520  59.990
   C    97.460  62.650  60.760
   C    94.980  62.130  60.980
   N    95.710  63.920  59.470
   O    95.830  64.890  60.170
   C    95.000  64.070  58.130
   C    93.410  64.250  58.350
   C    95.490  65.320  57.510
   C    95.270  62.870  57.200
   C    96.340  57.830  55.370
   C    97.160  56.780  56.250
   C    98.630  56.790  55.660
   C    97.180  57.170  57.730
   O    97.700  58.180  58.120
   O    96.420  56.380  58.430
   C    96.060  56.720  59.750
   C    94.700  56.130  59.860
   C    94.220  56.400  61.250
   C    93.290  57.670  61.400
   C    93.240  55.260  61.750
   N    95.250  56.440  62.260
   H    95.030  57.040  63.150
   C    96.600  55.940  62.100
   C    96.760  54.530  62.590
   C    97.510  56.840  62.940
   C    97.030  56.010  60.660
   C    96.580  55.270  55.900
   C    97.500  54.020  56.210
   C    96.480  52.790  55.970
   C    98.140  54.000  57.610
   O    97.680  53.290  58.530
   O    99.380  54.530  57.700
   C    100.050  54.600  58.960
   C    100.750  53.320  59.390
   C    101.590  53.530  60.640
   C    102.620  52.400  60.670
   C    100.700  53.400  61.860
   N    102.310  54.780  60.750
   O    103.040  54.990  61.720
   C    102.070  55.980  59.810
   C    103.390  56.510  59.340
   C    101.440  57.130  60.650
   C    101.180  55.590  58.670
   C    98.540  53.640  55.160
   H    87.550  53.390  56.010
   H    88.090  53.360  54.290
   H    87.640  51.870  55.180
   H    89.900  51.010  54.460
   H    91.330  51.660  55.020
   H    90.470  52.510  53.710
   H    88.470  50.780  59.230
   H    90.900  51.340  59.620
   H    90.220  52.870  60.330
   H    88.860  49.260  60.490
   H    89.290  48.870  62.030
   H    90.470  48.930  60.700
   H    91.450  52.180  62.380
   H    91.980  50.640  61.840
   H    90.960  50.730  63.280
   H    85.500  50.910  60.480
   H    86.840  50.110  60.060
   H    86.360  49.840  61.730
   H    85.560  52.860  61.770
   H    86.970  53.780  62.090
   H    86.450  52.480  63.180
   H    88.130  53.560  60.250
   H    86.840  52.640  59.350
   H    89.710  54.850  55.190
   H    89.540  54.790  56.910
   H    92.770  54.080  58.020
   H    91.930  52.710  57.460
   H    91.020  53.860  58.340
   H    93.740  54.750  52.910
   H    93.560  52.260  53.310
   H    92.240  52.330  52.130
   H    95.650  54.260  51.850
   H    95.690  52.670  52.690
   H    96.310  52.810  50.980
   H    93.380  50.860  50.210
   H    94.460  50.560  51.590
   H    95.110  51.090  50.100
   H    94.430  56.280  50.520
   H    93.860  56.130  48.880
   H    92.910  56.930  50.080
   H    90.960  53.810  49.360
   H    91.370  55.430  48.870
   H    92.150  54.250  48.080
   H    91.080  54.380  51.560
   H    91.950  55.880  51.770
   H    91.980  56.230  57.820
   H    90.660  56.480  56.980
   H    90.710  58.630  56.690
   H    92.040  58.650  57.770
   H    92.060  59.520  56.240
   H    90.330  57.540  52.390
   H    89.500  59.640  53.660
   H    88.160  58.760  54.130
   H    89.610  58.970  50.360
   H    89.690  60.610  51.120
   H    88.450  60.070  50.060
   H    86.230  59.830  52.990
   H    87.550  61.060  52.740
   H    86.490  60.450  51.400
   H    88.350  56.460  49.660
   H    88.800  54.960  50.570
   H    89.800  56.370  50.710
   H    85.930  56.000  52.560
   H    86.050  55.800  50.910
   H    86.880  54.610  51.960
   H    88.910  55.530  53.300
   H    87.820  56.660  53.860
   H    94.090  56.630  54.900
   H    94.260  56.510  56.650
   H    93.740  60.040  54.700
   H    94.400  58.770  53.650
   H    95.490  59.930  54.420
   H    94.190  61.540  58.320
   H    97.320  61.550  58.360
   H    96.300  60.450  59.230
   H    97.380  63.420  61.520
   H    98.360  62.840  60.170
   H    97.630  61.720  61.300
   H    94.050  61.690  60.610
   H    95.430  61.410  61.670
   H    94.770  62.920  61.700
   H    92.750  63.420  58.120
   H    93.140  64.610  59.340
   H    93.090  64.990  57.610
   H    96.580  65.300  57.460
   H    95.180  65.630  56.520
   H    95.290  66.200  58.130
   H    96.240  62.960  56.710
   H    94.470  62.890  56.470
   H    96.310  57.480  54.340
   H    96.980  58.710  55.270
   H    98.970  57.790  55.410
   H    98.600  56.450  54.620
   H    99.380  56.440  56.370
   H    96.010  57.780  60.010
   H    94.730  55.040  59.870
   H    94.020  56.550  59.120
   H    92.260  57.480  61.100
   H    93.670  58.590  60.950
   H    93.210  57.920  62.460
   H    93.560  54.220  61.790
   H    92.400  55.230  61.060
   H    92.870  55.390  62.760
   H    96.010  53.850  62.180
   H    96.640  54.600  63.670
   H    97.740  54.080  62.420
   H    97.370  57.900  62.730
   H    98.550  56.570  62.730
   H    97.480  56.710  64.030
   H    97.220  55.000  60.290
   H    97.920  56.640  60.560
   H    95.690  55.080  56.490
   H    96.280  55.090  54.860
   H    95.550  52.980  56.510
   H    96.270  52.600  54.920
   H    96.860  51.880  56.430
   H    99.410  54.930  59.770
   H    101.390  53.040  58.560
   H    99.990  52.540  59.370
   H    103.260  52.400  59.790
   H    102.140  51.420  60.620
   H    103.370  52.420  61.460
   H    100.490  52.340  62.000
   H    101.040  53.850  62.790
   H    99.800  54.000  61.750
   H    103.920  56.890  60.220
   H    103.920  55.770  58.750
   H    103.100  57.320  58.670
   H    101.630  58.150  60.320
   H    101.730  57.160  61.700
   H    100.370  56.910  60.630
   H    101.790  55.250  57.830
   H    100.610  56.480  58.390
   H    98.960  52.630  55.130
   H    98.120  53.770  54.170
   H    99.440  54.250  55.260
  