239
PTMA_CHAIN10_time50
 C    93.770  78.150  66.760
   C    93.620  79.710  66.540
   C    94.990  80.370  66.740
   C    92.740  80.100  67.700
   O    93.110  80.710  68.690
   O    91.440  79.730  67.510
   C    90.350  80.260  68.290
   C    89.190  79.870  67.470
   C    87.940  80.550  68.100
   C    87.720  81.990  67.710
   C    86.700  79.760  67.550
   N    88.000  80.490  69.610
   H    87.230  81.020  70.160
   C    88.940  79.590  70.300
   C    89.040  80.230  71.740
   C    88.330  78.120  70.340
   C    90.320  79.490  69.580
   C    92.900  80.030  65.130
   C    92.920  81.430  64.480
   C    92.480  82.470  65.650
   C    94.400  81.760  64.040
   O    94.740  82.930  63.900
   O    95.230  80.680  63.770
   C    96.590  80.810  63.190
   C    97.600  80.120  64.050
   C    98.990  79.880  63.480
   C    100.020  80.740  64.230
   C    99.540  78.440  63.550
   N    99.060  80.240  62.070
   H    100.050  80.250  61.630
   C    97.890  80.360  61.150
   C    98.010  81.700  60.460
   C    98.080  79.120  60.170
   C    96.630  80.250  61.780
   C    91.800  81.570  63.350
   C    92.130  81.240  61.810
   C    90.790  81.330  61.150
   C    92.620  79.730  61.560
   O    92.590  78.830  62.450
   O    93.040  79.590  60.360
   C    93.130  78.340  59.750
   C    94.520  78.130  59.220
   C    94.740  76.690  58.610
   C    95.390  75.890  59.770
   C    95.700  76.530  57.460
   N    93.400  76.120  58.270
   H    93.300  75.030  58.240
   C    92.220  76.970  57.860
   C    90.960  76.240  58.370
   C    92.170  77.020  56.320
   C    92.320  78.310  58.480
   C    93.160  82.360  61.270
   C    93.390  83.090  59.850
   C    94.490  82.180  59.120
   C    92.200  83.240  58.840
   O    91.860  84.400  58.530
   O    91.710  82.110  58.350
   C    90.710  82.170  57.250
   C    91.410  82.500  55.990
   C    90.480  82.500  54.860
   C    91.280  82.340  53.580
   C    89.790  83.860  54.650
   N    89.490  81.370  54.860
   H    89.220  80.920  53.900
   C    88.940  80.880  56.150
   C    87.720  81.650  56.560
   C    88.440  79.400  55.900
   C    90.000  80.830  57.200
   C    94.070  84.460  60.250
   C    93.300  85.760  60.760
   C    93.560  86.770  59.630
   C    91.740  85.600  61.210
   O    91.380  84.750  62.000
   O    91.020  86.410  60.550
   C    89.630  86.290  60.570
   C    89.230  87.470  61.410
   C    87.650  87.540  61.470
   C    87.200  87.080  62.820
   C    87.030  88.880  61.260
   N    86.980  86.520  60.580
   H    85.960  86.200  60.790
   C    87.550  86.120  59.240
   C    86.770  86.710  58.080
   C    87.330  84.640  59.230
   C    89.020  86.380  59.190
   C    94.110  86.200  62.080
   C    94.010  87.570  62.840
   C    94.910  88.660  62.070
   C    94.490  87.410  64.330
   O    94.220  88.310  65.110
   O    95.170  86.280  64.650
   C    95.770  86.190  65.910
   C    94.750  85.640  66.950
   C    95.300  85.490  68.380
   C    94.260  84.640  69.180
   C    95.290  86.840  69.110
   N    96.590  84.760  68.340
   O    97.020  84.230  69.370
   C    97.580  84.760  67.130
   C    98.370  83.450  67.050
   C    98.510  85.910  67.360
   C    96.780  85.040  65.890
   C    92.470  88.080  62.920
   H    93.890  77.820  67.790
   H    93.060  77.520  66.230
   H    94.720  77.810  66.360
   H    95.640  79.740  66.150
   H    95.360  80.390  67.770
   H    94.950  81.440  66.520
   H    90.380  81.350  68.230
   H    89.180  80.210  66.440
   H    89.030  78.800  67.340
   H    86.650  82.140  67.840
   H    87.970  82.110  66.650
   H    88.250  82.730  68.320
   H    85.770  80.010  68.070
   H    86.770  78.690  67.710
   H    86.560  79.980  66.490
   H    88.860  81.300  71.630
   H    88.250  79.840  72.390
   H    90.020  80.090  72.200
   H    88.240  77.660  69.360
   H    87.430  78.230  70.950
   H    89.050  77.560  70.940
   H    90.560  78.440  69.420
   H    91.170  79.770  70.210
   H    93.460  79.410  64.430
   H    91.890  79.620  65.070
   H    92.240  83.460  65.260
   H    93.310  82.710  66.310
   H    91.590  82.150  66.190
   H    96.810  81.870  63.120
   H    97.500  80.730  64.940
   H    97.110  79.180  64.290
   H    100.980  80.730  63.720
   H    99.600  81.750  64.320
   H    100.230  80.350  65.220
   H    99.140  77.880  62.710
   H    99.360  77.950  64.510
   H    100.610  78.460  63.360
   H    97.710  81.540  59.430
   H    97.320  82.470  60.820
   H    99.070  81.960  60.380
   H    97.410  79.240  59.320
   H    99.100  79.190  59.790
   H    98.000  78.130  60.620
   H    96.460  79.170  61.810
   H    95.830  80.630  61.130
   H    91.270  82.510  63.490
   H    91.110  80.770  63.610
   H    90.740  80.790  60.210
   H    90.100  80.760  61.770
   H    90.490  82.360  60.940
   H    92.890  77.570  60.490
   H    95.140  78.300  60.100
   H    94.820  78.920  58.530
   H    95.690  74.850  59.650
   H    94.600  75.750  60.510
   H    96.200  76.450  60.230
   H    95.960  75.530  57.110
   H    95.310  77.090  56.610
   H    96.620  77.020  57.770
   H    90.060  76.670  57.930
   H    90.960  76.210  59.460
   H    90.940  75.180  58.090
   H    92.220  76.030  55.870
   H    91.370  77.670  55.970
   H    93.120  77.490  56.070
   H    91.330  78.650  58.770
   H    92.660  79.100  57.800
   H    94.100  81.840  61.460
   H    93.210  83.090  62.090
   H    95.440  82.170  59.660
   H    94.670  82.580  58.120
   H    94.230  81.140  58.930
   H    90.010  82.960  57.520
   H    92.110  81.680  55.820
   H    92.000  83.420  56.040
   H    90.620  82.200  52.720
   H    92.090  81.610  53.650
   H    91.710  83.320  53.370
   H    89.170  83.840  53.750
   H    89.130  84.200  55.450
   H    90.520  84.640  54.470
   H    87.080  81.720  55.680
   H    87.200  81.180  57.390
   H    88.020  82.640  56.870
   H    88.240  78.970  56.880
   H    87.560  79.500  55.260
   H    89.250  78.800  55.480
   H    90.770  80.190  56.780
   H    89.640  80.510  58.180
   H    94.960  84.280  60.850
   H    94.490  84.760  59.290
   H    94.630  86.940  59.480
   H    93.170  87.760  59.860
   H    93.070  86.620  58.670
   H    89.270  85.440  61.160
   H    89.520  88.450  61.050
   H    89.690  87.440  62.400
   H    87.510  86.050  63.020
   H    86.120  87.160  62.880
   H    87.570  87.690  63.640
   H    87.080  89.080  60.190
   H    87.470  89.590  61.950
   H    86.010  88.860  61.640
   H    85.710  86.530  58.260
   H    87.120  86.160  57.200
   H    86.930  87.770  57.910
   H    87.620  84.190  60.180
   H    87.780  84.130  58.380
   H    86.270  84.430  59.060
   H    89.270  87.350  58.760
   H    89.400  85.690  58.430
   H    93.740  85.470  62.810
   H    95.180  86.030  61.940
   H    94.850  89.590  62.630
   H    95.940  88.310  61.960
   H    94.520  88.930  61.090
   H    96.190  87.130  66.270
   H    94.440  84.670  66.550
   H    93.870  86.290  66.990
   H    94.750  84.470  70.140
   H    94.110  83.710  68.620
   H    93.270  85.080  69.310
   H    94.730  87.720  68.810
   H    95.060  86.630  70.160
   H    96.300  87.220  69.180
   H    97.690  82.610  66.900
   H    98.940  83.450  66.120
   H    99.030  83.220  67.880
   H    98.950  86.290  66.440
   H    99.310  85.760  68.080
   H    97.920  86.810  67.520
   H    96.460  84.100  65.440
   H    97.490  85.290  65.100
   H    92.110  88.400  61.950
   H    91.890  87.310  63.430
   H    92.410  88.960  63.560
  