239
PTMA_CHAIN10_time6
 C    82.180  73.190  60.240
   C    82.410  73.500  58.700
   C    83.890  73.340  58.520
   C    81.920  75.000  58.500
   O    82.720  75.910  58.230
   O    80.610  75.170  58.680
   C    80.110  76.460  58.710
   C    79.490  76.670  57.330
   C    78.920  78.030  57.130
   C    79.860  79.210  56.780
   C    77.830  78.120  56.020
   N    78.320  78.530  58.410
   H    77.640  79.380  58.340
   C    78.570  78.090  59.780
   C    79.510  79.150  60.390
   C    77.160  78.150  60.550
   C    79.070  76.670  59.770
   C    81.540  72.370  57.980
   C    81.710  72.170  56.490
   C    81.720  73.570  55.780
   C    82.980  71.320  56.090
   O    83.360  71.360  54.880
   O    83.670  70.800  57.000
   C    84.920  70.120  56.700
   C    86.100  71.140  56.590
   C    87.460  70.530  56.240
   C    87.450  70.180  54.710
   C    88.570  71.510  56.390
   N    87.740  69.400  57.180
   O    88.900  68.940  57.170
   C    86.650  68.580  57.820
   C    86.490  67.240  57.030
   C    87.050  68.150  59.250
   C    85.250  69.280  57.920
   C    80.380  71.430  56.080
   C    80.130  70.330  55.000
   C    78.630  70.000  54.960
   C    80.820  68.960  55.320
   O    81.420  68.730  56.360
   O    80.520  67.950  54.500
   C    80.780  66.580  54.830
   C    82.220  66.250  54.500
   C    82.600  64.820  54.830
   C    83.100  64.780  56.260
   C    83.720  64.340  53.850
   N    81.510  63.880  54.690
   H    81.770  62.830  54.860
   C    80.130  64.190  54.300
   C    79.210  63.750  55.410
   C    79.820  63.470  53.000
   C    79.890  65.690  54.060
   C    80.490  71.030  53.610
   C    80.770  70.360  52.210
   C    82.210  69.610  52.260
   C    79.720  69.300  51.770
   O    80.040  68.160  51.430
   O    78.410  69.680  51.600
   C    77.350  68.750  51.290
   C    77.000  67.990  52.510
   C    75.840  67.050  52.200
   C    75.230  66.700  53.630
   C    76.430  65.670  51.600
   N    74.740  67.680  51.390
   O    73.590  67.260  51.470
   C    74.990  68.790  50.420
   C    75.240  68.100  49.060
   C    73.740  69.680  50.170
   C    76.200  69.640  50.910
   C    80.820  71.450  51.090
   C    80.680  71.320  49.510
   C    81.280  70.010  49.030
   C    79.230  71.450  49.140
   O    78.590  70.480  48.650
   O    78.670  72.650  49.520
   C    77.280  72.930  49.360
   C    76.970  74.130  50.230
   C    75.540  74.530  50.130
   C    74.800  74.200  51.410
   C    75.460  76.100  49.930
   N    74.740  73.940  49.080
   H    73.670  74.120  49.110
   C    75.350  73.430  47.790
   C    75.000  74.470  46.640
   C    74.710  72.130  47.360
   C    76.850  73.300  47.940
   C    81.470  72.570  48.890
   C    81.450  72.920  47.300
   C    80.210  73.540  46.750
   C    81.840  71.620  46.440
   O    81.130  71.210  45.520
   O    83.060  71.240  46.740
   C    83.720  70.320  45.980
   C    85.240  70.710  45.990
   C    86.150  69.810  45.160
   C    87.450  69.410  45.850
   C    86.740  70.550  43.930
   N    85.440  68.560  44.670
   O    85.870  67.990  43.680
   C    84.200  67.960  45.350
   C    84.610  66.610  46.000
   C    83.200  67.700  44.220
   C    83.600  68.860  46.420
   C    82.460  74.080  47.040
   H    82.510  74.030  60.860
   H    81.170  72.960  60.590
   H    82.850  72.400  60.580
   H    84.260  72.360  58.820
   H    84.430  73.990  59.200
   H    84.210  73.680  57.530
   H    80.920  77.140  58.990
   H    80.200  76.550  56.510
   H    78.750  75.870  57.290
   H    80.500  79.700  57.510
   H    79.180  80.050  56.630
   H    80.390  79.110  55.830
   H    78.270  78.460  55.080
   H    77.080  78.860  56.300
   H    77.250  77.210  55.880
   H    79.840  78.920  61.400
   H    80.460  79.340  59.890
   H    79.030  80.120  60.500
   H    76.670  77.180  60.470
   H    76.490  78.910  60.160
   H    77.340  78.380  61.600
   H    78.200  76.030  59.620
   H    79.590  76.450  60.700
   H    81.760  71.430  58.480
   H    80.550  72.700  58.290
   H    80.770  74.070  56.000
   H    81.790  73.560  54.690
   H    82.550  74.220  56.040
   H    85.040  69.540  55.780
   H    85.940  71.940  55.860
   H    86.210  71.650  57.540
   H    87.300  71.070  54.100
   H    88.400  69.740  54.400
   H    86.640  69.470  54.570
   H    89.530  71.100  56.090
   H    88.850  71.810  57.400
   H    88.370  72.320  55.690
   H    85.760  66.560  57.470
   H    86.210  67.440  56.000
   H    87.430  66.690  57.020
   H    87.020  68.980  59.960
   H    86.520  67.290  59.660
   H    88.090  67.840  59.260
   H    85.090  69.830  58.850
   H    84.500  68.510  58.070
   H    79.720  72.290  56.000
   H    79.980  70.930  56.960
   H    78.480  69.200  54.230
   H    78.300  69.470  55.850
   H    77.920  70.820  54.950
   H    80.600  66.380  55.880
   H    82.830  66.940  55.090
   H    82.470  66.400  53.450
   H    82.360  65.090  57.000
   H    84.060  65.290  56.370
   H    83.390  63.780  56.580
   H    84.590  64.990  53.810
   H    84.100  63.350  54.130
   H    83.280  64.230  52.860
   H    78.180  64.100  55.280
   H    79.490  64.000  56.430
   H    79.120  62.660  55.320
   H    80.200  63.880  52.060
   H    80.050  62.400  52.950
   H    78.740  63.610  53.000
   H    78.890  66.070  54.300
   H    79.900  65.970  53.010
   H    81.370  71.670  53.740
   H    79.590  71.640  53.490
   H    82.520  69.190  51.310
   H    82.380  68.860  53.030
   H    82.860  70.460  52.460
   H    77.630  68.100  50.460
   H    76.660  68.730  53.240
   H    77.850  67.490  52.970
   H    74.310  66.130  53.540
   H    74.890  67.600  54.140
   H    75.970  66.260  54.300
   H    75.910  65.420  50.680
   H    77.510  65.590  51.580
   H    76.100  64.890  52.290
   H    75.430  68.870  48.320
   H    76.100  67.450  49.270
   H    74.430  67.420  48.820
   H    73.280  69.880  51.140
   H    73.940  70.700  49.850
   H    73.010  69.140  49.570
   H    75.930  70.360  51.670
   H    76.500  70.250  50.060
   H    80.130  72.210  51.450
   H    81.760  71.970  51.310
   H    82.360  69.900  49.130
   H    80.940  69.780  48.020
   H    80.880  69.160  49.580
   H    76.610  72.150  49.720
   H    77.580  75.000  49.970
   H    77.140  73.760  51.240
   H    73.780  74.570  51.420
   H    75.200  74.680  52.300
   H    74.800  73.180  51.780
   H    75.820  76.430  48.960
   H    75.980  76.740  50.640
   H    74.410  76.410  49.940
   H    75.180  75.500  46.950
   H    73.950  74.470  46.320
   H    75.560  74.300  45.720
   H    75.050  71.250  47.910
   H    74.780  71.970  46.280
   H    73.630  72.010  47.370
   H    77.300  74.210  47.540
   H    77.220  72.460  47.370
   H    81.070  73.500  49.310
   H    82.500  72.500  49.210
   H    79.400  72.830  46.670
   H    79.760  74.250  47.450
   H    80.420  74.080  45.830
   H    83.440  70.400  44.930
   H    85.580  70.690  47.020
   H    85.340  71.770  45.750
   H    87.980  68.610  45.340
   H    87.330  68.890  46.800
   H    87.990  70.330  46.070
   H    85.870  70.930  43.400
   H    87.270  71.450  44.240
   H    87.230  69.950  43.170
   H    83.880  66.170  46.680
   H    84.760  65.790  45.300
   H    85.580  66.640  46.490
   H    82.960  68.570  43.600
   H    82.310  67.260  44.680
   H    83.680  66.960  43.580
   H    83.980  68.650  47.420
   H    82.540  68.630  46.510
   H    82.630  74.240  45.980
   H    82.220  75.080  47.390
   H    83.430  73.810  47.460
  