239
PTMA_CHAIN10_time0
 C    87.190  79.180  68.450
   C    86.770  79.780  67.080
   C    87.870  80.780  66.690
   C    85.460  80.540  67.350
   O    85.360  81.760  67.360
   O    84.470  79.680  67.730
   C    83.340  80.260  68.450
   C    82.300  80.850  67.510
   C    81.150  81.510  68.330
   C    81.570  82.970  68.630
   C    79.910  81.570  67.400
   N    80.970  80.820  69.650
   O    79.690  81.140  70.220
   C    81.250  79.370  69.710
   C    81.160  78.850  71.170
   C    80.300  78.490  68.860
   C    82.720  79.120  69.260
   C    86.600  78.590  66.080
   C    86.660  78.780  64.510
   C    85.650  79.850  64.090
   C    88.110  79.140  64.090
   O    88.390  80.070  63.340
   O    89.010  78.270  64.620
   C    90.380  78.290  64.150
   C    91.310  78.920  65.190
   C    92.090  77.920  66.070
   C    93.030  78.770  66.980
   C    91.120  77.210  67.040
   N    92.760  76.840  65.280
   O    94.190  76.910  65.330
   C    92.290  76.590  63.890
   C    92.990  77.420  62.780
   C    92.500  75.090  63.570
   C    90.770  76.850  63.800
   C    86.340  77.370  63.870
   C    85.860  77.100  62.370
   C    84.320  77.260  62.350
   C    86.290  75.620  62.200
   O    87.470  75.300  62.110
   O    85.270  74.730  62.310
   C    85.660  73.330  62.420
   C    86.060  72.740  61.080
   C    86.480  71.240  61.200
   C    87.880  71.180  61.850
   C    86.610  70.720  59.750
   N    85.410  70.470  61.890
   O    85.810  69.100  62.100
   C    84.780  71.030  63.120
   C    85.580  70.850  64.430
   C    83.400  70.340  63.320
   C    84.460  72.540  62.930
   C    86.520  78.030  61.280
   C    86.750  77.720  59.750
   C    87.580  76.420  59.550
   C    85.560  77.490  58.800
   O    85.660  77.680  57.590
   O    84.500  76.870  59.380
   C    83.520  76.290  58.470
   C    82.910  75.030  59.090
   C    81.390  75.070  59.370
   C    81.100  75.920  60.640
   C    80.970  73.630  59.770
   N    80.600  75.690  58.270
   O    79.810  74.740  57.530
   C    81.280  76.650  57.350
   C    81.770  76.040  56.010
   C    80.260  77.770  57.030
   C    82.480  77.320  58.050
   C    87.670  78.850  59.120
   C    87.310  80.370  58.970
   C    88.050  80.850  57.690
   C    85.820  80.630  58.630
   O    85.360  80.540  57.490
   O    85.100  81.070  59.700
   C    84.020  81.980  59.350
   C    82.700  81.270  59.150
   C    81.620  82.280  58.640
   C    81.710  82.290  57.080
   C    80.230  81.710  59.010
   N    81.930  83.660  59.110
   O    80.790  84.530  58.950
   C    82.560  83.810  60.440
   C    81.670  83.370  61.630
   C    82.970  85.290  60.700
   C    83.890  82.990  60.490
   C    87.760  81.270  60.190
   C    89.230  81.790  60.430
   C    90.250  80.640  60.490
   C    89.250  82.620  61.740
   O    88.340  83.370  62.080
   O    90.470  82.570  62.350
   C    90.790  83.580  63.340
   C    91.630  82.940  64.420
   C    92.240  83.960  65.430
   C    93.390  83.210  66.150
   C    91.160  84.290  66.480
   N    92.590  85.250  64.770
   O    93.650  85.930  65.470
   C    92.810  85.250  63.310
   C    94.040  84.430  62.840
   C    93.010  86.700  62.780
   C    91.510  84.730  62.630
   C    89.700  82.820  59.370
   H    88.170  78.710  68.390
   H    87.230  79.950  69.220
   H    86.480  78.430  68.790
   H    88.830  80.280  66.570
   H    88.000  81.540  67.460
   H    87.640  81.310  65.760
   H    83.720  81.020  69.140
   H    82.760  81.570  66.830
   H    81.920  80.060  66.860
   H    82.450  83.020  69.280
   H    80.770  83.530  69.120
   H    81.810  83.510  67.710
   H    80.170  82.030  66.440
   H    79.100  82.170  67.820
   H    79.500  80.580  67.180
   H    80.140  78.840  71.550
   H    81.540  77.830  71.250
   H    81.760  79.470  71.840
   H    80.420  78.670  67.790
   H    79.250  78.650  69.110
   H    80.510  77.430  69.030
   H    82.770  78.200  68.680
   H    83.370  78.940  70.110
   H    87.350  77.840  66.340
   H    85.650  78.100  66.310
   H    85.670  80.050  63.020
   H    85.860  80.810  64.560
   H    84.640  79.570  64.380
   H    90.440  78.900  63.250
   H    92.030  79.540  64.660
   H    90.740  79.610  65.820
   H    93.740  79.350  66.400
   H    92.450  79.470  67.570
   H    93.580  78.150  67.690
   H    91.650  76.550  67.720
   H    90.360  76.600  66.540
   H    90.580  77.930  67.650
   H    92.500  77.260  61.820
   H    92.980  78.490  62.980
   H    94.030  77.120  62.650
   H    93.560  74.830  63.520
   H    92.030  74.460  64.320
   H    92.060  74.830  62.610
   H    90.220  76.150  64.440
   H    90.390  76.630  62.800
   H    85.600  76.900  64.510
   H    87.220  76.760  64.050
   H    84.030  78.310  62.280
   H    83.860  76.730  61.520
   H    83.850  76.850  63.250
   H    86.470  73.270  63.150
   H    86.870  73.320  60.630
   H    85.230  72.840  60.380
   H    88.270  70.160  61.890
   H    87.910  71.580  62.860
   H    88.600  71.760  61.260
   H    85.650  70.720  59.230
   H    87.280  71.350  59.170
   H    87.020  69.710  59.710
   H    85.020  71.260  65.270
   H    86.540  71.360  64.420
   H    85.760  69.800  64.670
   H    82.780  70.420  62.420
   H    83.510  69.280  63.560
   H    82.850  70.800  64.140
   H    84.110  72.980  63.870
   H    83.630  72.670  62.240
   H    87.520  78.250  61.660
   H    85.970  78.970  61.300
   H    88.460  76.410  60.190
   H    87.930  76.330  58.520
   H    86.980  75.530  59.720
   H    84.070  75.950  57.590
   H    83.450  74.760  60.000
   H    83.100  74.210  58.390
   H    81.670  75.540  61.490
   H    80.040  75.870  60.900
   H    81.360  76.970  60.530
   H    79.920  73.570  60.040
   H    81.160  72.920  58.970
   H    81.540  73.280  60.630
   H    82.370  76.760  55.450
   H    82.390  75.150  56.160
   H    80.940  75.760  55.350
   H    79.880  78.240  57.940
   H    80.720  78.550  56.410
   H    79.400  77.390  56.470
   H    82.170  77.930  58.900
   H    82.950  78.040  57.380
   H    88.620  78.790  59.650
   H    87.930  78.490  58.120
   H    89.120  80.630  57.720
   H    87.900  81.920  57.520
   H    87.670  80.350  56.800
   H    84.310  82.520  58.450
   H    82.390  80.810  60.090
   H    82.810  80.430  58.460
   H    81.560  81.290  56.670
   H    82.680  82.650  56.730
   H    80.950  82.930  56.640
   H    80.130  80.680  58.660
   H    79.420  82.270  58.540
   H    80.050  81.710  60.090
   H    80.710  83.890  61.640
   H    82.160  83.600  62.580
   H    81.480  82.300  61.630
   H    83.580  85.680  59.880
   H    83.560  85.380  61.610
   H    82.110  85.950  60.810
   H    83.990  82.470  61.440
   H    84.760  83.640  60.430
   H    87.160  82.180  60.150
   H    87.430  80.770  61.100
   H    90.340  80.130  59.530
   H    91.250  80.990  60.740
   H    89.960  79.900  61.240
   H    89.870  83.960  63.790
   H    92.410  82.330  63.950
   H    91.020  82.200  64.950
   H    94.220  82.990  65.470
   H    93.030  82.260  66.550
   H    93.780  83.770  67.000
   H    91.550  84.940  67.270
   H    90.300  84.800  66.030
   H    90.780  83.390  66.970
   H    94.160  84.500  61.760
   H    94.970  84.790  63.290
   H    93.960  83.370  63.070
   H    93.010  86.710  61.690
   H    93.960  87.130  63.090
   H    92.220  87.370  63.120
   H    91.740  84.460  61.600
   H    90.800  85.550  62.560
   H    88.900  83.510  59.120
   H    90.530  83.420  59.740
   H    90.050  82.360  58.450
  