239
PTMA_CHAIN8_time0point05
 C    85.020  40.290  66.830
   C    84.470  39.090  66.090
   C    83.430  39.730  65.360
   C    83.950  38.110  67.150
   O    82.770  38.160  67.530
   O    84.960  37.540  67.840
   C    84.690  37.100  69.200
   C    84.310  35.670  69.250
   C    83.680  35.490  70.670
   C    82.330  36.140  70.720
   C    83.510  33.980  71.010
   N    84.480  36.190  71.660
   H    84.200  35.920  72.680
   C    85.890  36.550  71.440
   C    86.080  37.430  72.680
   C    86.870  35.310  71.500
   C    85.890  37.310  70.160
   C    85.680  38.530  65.180
   C    85.450  37.480  64.010
   C    84.570  36.370  64.500
   C    84.900  38.240  62.800
   O    83.790  37.960  62.320
   O    85.730  39.170  62.430
   C    85.500  40.040  61.280
   C    84.800  41.390  61.610
   C    85.770  42.610  61.730
   C    84.980  43.920  61.560
   C    86.620  42.760  62.970
   N    86.670  42.650  60.550
   H    86.580  43.540  59.930
   C    86.970  41.450  59.710
   C    86.110  41.330  58.420
   C    88.400  41.750  59.310
   C    86.930  40.260  60.660
   C    86.820  36.800  63.730
   C    87.120  35.560  62.740
   C    87.210  34.300  63.730
   C    88.520  35.900  62.150
   O    88.550  36.860  61.360
   O    89.560  35.340  62.780
   C    90.900  35.680  62.370
   C    91.280  35.220  60.970
   C    92.700  35.710  60.670
   C    92.860  37.230  60.300
   C    93.170  34.960  59.390
   N    93.520  35.130  61.790
   H    94.530  34.750  61.590
   C    93.270  35.610  63.200
   C    93.600  37.100  63.570
   C    94.180  34.760  64.020
   C    91.850  35.220  63.430
   C    86.130  35.220  61.520
   C    86.460  34.450  60.100
   C    87.500  35.230  59.210
   C    86.820  32.940  60.100
   O    86.800  32.320  59.020
   O    87.670  32.560  61.150
   C    88.280  31.300  61.100
   C    89.540  31.340  61.940
   C    89.540  30.380  63.170
   C    88.870  31.000  64.420
   C    91.070  30.040  63.540
   N    89.070  29.050  62.740
   H    89.910  28.360  62.590
   C    88.080  28.860  61.690
   C    88.740  28.350  60.390
   C    87.200  27.710  62.100
   C    87.320  30.220  61.460
   C    85.200  34.800  59.210
   C    83.740  34.230  59.410
   C    83.150  33.970  58.040
   C    83.570  32.860  60.100
   O    83.780  31.780  59.500
   O    83.250  33.010  61.430
   C    82.490  31.960  62.170
   C    83.330  30.820  62.730
   C    82.440  29.680  63.080
   C    82.210  28.770  61.810
   C    83.040  28.780  64.280
   N    81.110  30.100  63.420
   H    80.500  29.280  63.810
   C    80.870  31.400  64.040
   C    81.290  31.480  65.580
   C    79.330  31.530  64.040
   C    81.520  32.500  63.160
   C    82.750  35.280  60.150
   C    82.010  36.570  59.540
   C    82.980  37.430  58.760
   C    81.270  37.330  60.690
   O    80.650  36.650  61.510
   O    81.250  38.670  60.670
   C    80.150  39.440  61.180
   C    80.770  40.850  61.560
   C    79.870  41.960  61.930
   C    80.410  43.330  61.560
   C    79.480  41.910  63.450
   N    78.470  41.710  61.300
   O    77.550  42.310  61.720
   C    78.290  40.840  60.030
   C    78.550  41.630  58.660
   C    76.700  40.500  60.090
   C    79.030  39.550  60.090
   C    80.820  36.140  58.580
   H    85.250  41.200  66.280
   H    84.280  40.590  67.570
   H    85.920  40.090  67.420
   H    83.730  40.490  64.630
   H    82.730  40.190  66.060
   H    82.880  38.940  64.840
   H    84.000  37.880  69.530
   H    83.520  35.470  68.520
   H    85.160  35.020  69.030
   H    82.390  37.220  70.700
   H    81.910  35.880  71.700
   H    81.660  35.800  69.930
   H    82.660  33.570  70.470
   H    83.260  33.730  72.040
   H    84.320  33.300  70.730
   H    85.900  36.900  73.610
   H    87.090  37.840  72.760
   H    85.360  38.250  72.660
   H    86.800  34.780  70.540
   H    86.600  34.550  72.230
   H    87.900  35.580  71.730
   H    86.760  36.980  69.580
   H    86.160  38.350  70.360
   H    86.110  39.440  64.750
   H    86.510  38.250  65.820
   H    84.570  35.490  63.870
   H    83.550  36.730  64.570
   H    84.930  36.060  65.480
   H    84.910  39.510  60.540
   H    83.970  41.570  60.930
   H    84.300  41.280  62.570
   H    84.480  43.860  60.590
   H    84.250  44.100  62.350
   H    85.630  44.790  61.520
   H    87.040  43.760  63.070
   H    87.500  42.130  62.920
   H    86.100  42.550  63.910
   H    86.360  40.420  57.870
   H    85.090  41.220  58.780
   H    86.090  42.190  57.760
   H    88.570  42.680  58.760
   H    88.980  41.850  60.220
   H    88.870  40.950  58.750
   H    87.700  40.330  61.430
   H    87.180  39.330  60.150
   H    87.250  36.660  64.720
   H    87.370  37.660  63.340
   H    86.370  33.620  63.670
   H    88.030  33.590  63.570
   H    87.240  34.460  64.800
   H    90.790  36.760  62.390
   H    90.600  35.540  60.180
   H    91.270  34.130  60.900
   H    93.870  37.620  60.270
   H    92.320  37.880  60.980
   H    92.460  37.460  59.310
   H    93.170  33.880  59.560
   H    92.540  35.220  58.540
   H    94.210  35.260  59.240
   H    94.000  37.280  64.570
   H    92.720  37.750  63.600
   H    94.290  37.700  62.980
   H    94.220  33.750  63.630
   H    95.180  35.200  63.920
   H    93.890  34.760  65.070
   H    91.480  35.560  64.400
   H    91.820  34.130  63.440
   H    85.690  36.160  61.200
   H    85.250  34.720  61.920
   H    87.430  36.310  59.270
   H    87.500  34.990  58.140
   H    88.530  35.070  59.540
   H    88.620  31.230  60.070
   H    89.620  32.290  62.470
   H    90.380  31.190  61.270
   H    89.190  31.960  64.840
   H    88.780  30.340  65.280
   H    87.820  31.170  64.190
   H    91.260  29.170  64.170
   H    91.610  29.860  62.600
   H    91.590  30.830  64.070
   H    88.000  28.230  59.610
   H    89.430  29.080  59.960
   H    89.310  27.430  60.440
   H    86.750  27.930  63.070
   H    86.400  27.420  61.420
   H    87.820  26.830  62.240
   H    86.800  30.520  62.370
   H    86.530  30.080  60.730
   H    85.080  35.880  59.150
   H    85.400  34.460  58.190
   H    83.190  34.780  57.310
   H    82.080  33.810  58.130
   H    83.600  33.150  57.490
   H    81.910  31.490  61.380
   H    83.870  31.040  63.650
   H    84.130  30.480  62.070
   H    83.100  28.290  61.400
   H    81.710  29.320  61.010
   H    81.580  27.980  62.220
   H    83.910  28.230  63.920
   H    82.280  28.040  64.520
   H    83.350  29.350  65.160
   H    80.910  30.690  66.230
   H    80.950  32.430  65.990
   H    82.370  31.500  65.710
   H    78.910  31.700  63.050
   H    79.010  32.350  64.680
   H    78.850  30.640  64.440
   H    81.920  33.220  63.880
   H    80.770  33.100  62.630
   H    81.890  34.780  60.590
   H    83.300  35.700  61.000
   H    83.420  36.940  57.890
   H    82.380  38.270  58.390
   H    83.760  37.840  59.390
   H    79.800  38.940  62.080
   H    81.380  41.110  60.700
   H    81.510  40.630  62.330
   H    80.660  43.330  60.490
   H    81.370  43.540  62.030
   H    79.840  44.250  61.670
   H    78.570  42.420  63.770
   H    79.300  40.860  63.700
   H    80.280  42.340  64.060
   H    78.000  41.190  57.830
   H    78.230  42.680  58.680
   H    79.600  41.660  58.370
   H    76.530  39.710  59.360
   H    76.120  41.360  59.780
   H    76.370  40.240  61.090
   H    79.430  39.400  59.080
   H    78.400  38.680  60.270
   H    80.170  35.320  58.890
   H    80.110  36.940  58.410
   H    81.110  35.880  57.560
  