239
PTMA_CHAIN4_frame1
 C    91.860  80.720  13.240
   C    91.340  79.300  13.660
   C    90.200  79.480  14.710
   C    92.530  78.550  14.200
   O    92.450  77.930  15.260
   O    93.660  78.530  13.490
   C    94.810  77.850  14.010
   C    94.950  76.420  13.450
   C    96.220  75.780  14.140
   C    96.000  75.500  15.610
   C    96.390  74.350  13.510
   N    97.480  76.580  13.860
   O    98.510  75.940  13.540
   C    97.460  78.120  13.860
   C    97.830  78.720  15.260
   C    98.570  78.720  12.920
   C    96.060  78.620  13.420
   C    90.870  78.710  12.310
   C    90.210  77.250  12.150
   C    91.120  76.190  12.920
   C    88.820  77.310  12.870
   O    88.410  76.440  13.660
   O    88.120  78.420  12.580
   C    86.760  78.490  13.070
   C    86.640  78.950  14.530
   C    85.210  79.410  14.960
   C    84.510  78.210  15.590
   C    85.380  80.430  16.070
   N    84.310  79.950  13.820
   O    83.220  80.450  14.110
   C    84.580  79.760  12.330
   C    83.780  78.530  11.890
   C    84.060  80.990  11.460
   C    86.070  79.550  12.200
   C    90.140  76.910  10.640
   C    90.160  75.480  10.080
   C    91.420  74.640  10.290
   C    90.010  75.670  8.490
   O    89.160  75.020  7.920
   O    90.870  76.520  7.860
   C    90.830  76.670  6.530
   C    91.910  75.790  5.920
   C    91.970  75.930  4.440
   C    90.930  74.910  3.890
   C    93.270  75.450  4.000
   N    91.850  77.380  3.970
   O    92.210  77.660  2.820
   C    91.120  78.460  4.750
   C    89.680  78.580  4.330
   C    91.880  79.810  4.620
   C    91.120  78.140  6.220
   C    88.900  74.640  10.720
   C    87.340  74.790  10.340
   C    86.980  76.300  9.920
   C    86.920  73.750  9.250
   O    85.890  73.910  8.550
   O    87.820  72.830  8.990
   C    87.570  71.870  7.930
   C    88.340  72.190  6.670
   C    87.990  71.160  5.490
   C    89.290  71.010  4.720
   C    86.980  71.810  4.500
   N    87.370  69.910  5.960
   O    87.180  69.100  5.120
   C    87.590  69.380  7.370
   C    86.290  68.720  7.910
   C    88.710  68.340  7.280
   C    87.990  70.550  8.340
   C    86.420  74.430  11.620
   C    86.230  72.940  12.180
   C    85.160  72.020  11.450
   C    87.570  72.150  12.340
   O    87.740  71.100  11.720
   O    88.390  72.560  13.240
   C    89.270  71.590  13.880
   C    90.730  71.910  13.570
   C    91.780  71.190  14.440
   C    92.530  70.120  13.610
   C    92.940  72.180  14.590
   N    91.280  70.720  15.810
   O    92.100  70.070  16.470
   C    89.810  70.780  16.260
   C    89.830  71.370  17.650
   C    89.160  69.380  16.270
   C    89.020  71.790  15.370
   C    85.730  72.990  13.730
   C    84.310  73.280  14.210
   C    83.680  74.470  13.400
   C    84.260  73.650  15.760
   O    85.300  73.630  16.430
   O    83.150  74.230  16.100
   C    82.890  74.690  17.410
   C    82.140  76.020  17.370
   C    81.940  76.720  18.670
   C    80.700  77.650  18.430
   C    83.180  77.650  18.980
   N    81.610  75.780  19.830
   O    81.300  76.350  20.850
   C    81.520  74.310  19.600
   C    80.180  73.740  19.950
   C    82.640  73.650  20.530
   C    81.890  73.860  18.150
   C    83.310  72.190  14.130
   H    92.740  80.710  12.600
   H    91.100  81.310  12.720
   H    92.090  81.280  14.150
   H    90.550  79.910  15.650
   H    89.650  78.560  14.930
   H    89.400  80.110  14.310
   H    95.040  77.880  15.070
   H    94.110  75.920  13.920
   H    94.780  76.210  12.400
   H    96.690  76.000  16.290
   H    95.930  74.440  15.860
   H    95.030  75.860  15.960
   H    95.470  73.770  13.570
   H    97.140  73.740  14.020
   H    96.480  74.270  12.430
   H    97.900  79.810  15.250
   H    97.120  78.480  16.050
   H    98.870  78.510  15.530
   H    99.580  78.320  13.010
   H    98.580  79.810  12.970
   H    98.400  78.630  11.850
   H    95.880  78.410  12.370
   H    95.980  79.680  13.660
   H    90.320  79.460  11.740
   H    91.780  78.620  11.730
   H    90.670  75.200  12.800
   H    91.130  76.310  14.000
   H    92.090  76.100  12.420
   H    86.170  77.620  12.780
   H    86.970  78.140  15.180
   H    87.330  79.780  14.650
   H    83.530  78.470  15.990
   H    84.410  77.450  14.810
   H    85.190  77.780  16.320
   H    85.740  81.430  15.820
   H    86.040  80.180  16.900
   H    84.430  80.640  16.550
   H    83.240  78.640  10.950
   H    84.250  77.650  11.450
   H    82.990  78.310  12.600
   H    82.980  81.080  11.380
   H    84.420  81.970  11.780
   H    84.520  80.880  10.480
   H    86.690  80.440  12.290
   H    86.280  79.130  11.210
   H    91.080  77.310  10.260
   H    89.300  77.510  10.300
   H    91.460  74.030  11.190
   H    91.670  73.900  9.530
   H    92.320  75.250  10.200
   H    89.880  76.400  6.060
   H    91.770  74.760  6.260
   H    92.860  76.100  6.360
   H    90.970  74.950  2.800
   H    89.920  75.130  4.220
   H    91.020  73.850  4.120
   H    93.530  74.410  4.200
   H    93.410  75.440  2.920
   H    94.080  76.040  4.440
   H    89.120  79.160  5.050
   H    89.170  77.620  4.260
   H    89.530  79.160  3.420
   H    91.880  80.200  3.600
   H    91.450  80.610  5.230
   H    92.920  79.600  4.830
   H    90.400  78.750  6.760
   H    92.060  78.480  6.660
   H    88.970  74.660  11.810
   H    89.220  73.620  10.500
   H    85.910  76.380  9.730
   H    87.490  76.620  9.010
   H    87.260  76.990  10.710
   H    86.500  71.810  7.730
   H    89.410  72.150  6.900
   H    88.270  73.260  6.490
   H    89.570  71.800  4.020
   H    89.090  70.110  4.140
   H    90.140  70.720  5.330
   H    86.450  71.060  3.910
   H    86.250  72.390  5.070
   H    87.500  72.520  3.860
   H    86.170  67.800  7.340
   H    86.280  68.330  8.930
   H    85.430  69.380  7.800
   H    89.650  68.840  7.040
   H    88.920  67.860  8.230
   H    88.570  67.510  6.590
   H    89.070  70.450  8.440
   H    87.550  70.390  9.330
   H    86.840  75.040  12.410
   H    85.400  74.770  11.450
   H    85.580  71.460  10.610
   H    84.370  72.630  11.030
   H    84.770  71.270  12.130
   H    89.090  70.520  13.750
   H    90.820  72.990  13.720
   H    90.800  71.760  12.490
   H    91.840  69.280  13.650
   H    93.540  69.840  13.910
   H    92.570  70.350  12.540
   H    93.760  71.760  15.170
   H    92.620  73.140  14.980
   H    93.400  72.470  13.650
   H    90.320  70.710  18.360
   H    88.830  71.330  18.070
   H    90.330  72.330  17.790
   H    89.630  68.710  15.550
   H    88.090  69.450  16.130
   H    89.170  69.010  17.300
   H    89.330  72.780  15.700
   H    87.940  71.760  15.530
   H    86.000  72.060  14.220
   H    86.380  73.720  14.220
   H    82.710  74.800  13.770
   H    84.260  75.390  13.450
   H    83.450  74.210  12.360
   H    83.820  74.780  17.960
   H    81.220  75.910  16.790
   H    82.740  76.630  16.690
   H    80.400  78.170  19.350
   H    79.770  77.130  18.210
   H    80.800  78.410  17.650
   H    84.080  77.080  18.740
   H    83.190  78.490  18.300
   H    83.200  78.080  19.980
   H    79.950  73.900  21.000
   H    79.330  73.970  19.320
   H    80.210  72.650  19.860
   H    82.820  72.580  20.390
   H    82.290  73.840  21.550
   H    83.620  74.100  20.570
   H    80.980  73.720  17.570
   H    82.230  72.830  18.230
   H    83.020  71.830  13.150
   H    83.490  71.320  14.770
   H    82.350  72.580  14.460
  