239
PTMA_CHAIN5_time10
 C    76.030  59.360  60.080
   C    74.890  58.790  59.220
   C    74.560  57.330  59.730
   C    75.310  58.780  57.760
   O    75.450  57.730  57.160
   O    75.680  59.960  57.300
   C    76.590  60.110  56.240
   C    75.960  60.970  55.200
   C    76.910  61.080  54.000
   C    76.890  59.860  53.060
   C    76.540  62.270  53.080
   N    78.270  61.400  54.450
   H    78.890  61.890  53.710
   C    78.930  61.010  55.770
   C    79.710  59.650  55.490
   C    79.940  62.080  56.120
   C    77.810  60.780  56.790
   C    73.760  59.840  59.420
   C    72.240  59.610  59.000
   C    72.240  58.810  57.640
   C    71.570  58.690  60.010
   O    72.050  58.490  61.140
   O    70.450  58.080  59.540
   C    69.740  57.070  60.350
   C    68.450  57.600  60.820
   C    67.820  56.650  61.790
   C    68.570  56.540  63.220
   C    66.370  57.070  62.100
   N    67.660  55.270  61.170
   H    66.800  54.680  61.470
   C    68.580  54.790  60.140
   C    69.510  53.770  60.770
   C    67.640  54.070  59.100
   C    69.430  55.880  59.430
   C    71.370  60.940  58.830
   C    71.070  62.070  59.880
   C    70.480  63.200  59.000
   C    72.370  62.560  60.600
   O    72.830  61.980  61.610
   O    73.030  63.540  59.890
   C    74.120  64.180  60.500
   C    74.190  65.590  59.910
   C    75.380  66.340  60.310
   C    75.110  67.070  61.690
   C    75.730  67.430  59.290
   N    76.620  65.520  60.550
   H    77.580  66.040  60.530
   C    76.620  64.020  60.630
   C    76.700  63.660  62.060
   C    77.820  63.430  59.870
   C    75.340  63.420  60.110
   C    69.900  61.590  60.850
   C    69.510  62.230  62.280
   C    70.240  61.250  63.270
   C    69.970  63.690  62.570
   O    70.650  64.460  61.850
   O    69.480  64.020  63.780
   C    69.870  65.250  64.390
   C    68.750  65.710  65.350
   C    69.160  67.080  65.990
   C    68.370  67.420  67.290
   C    68.800  68.190  64.960
   N    70.600  67.070  66.370
   H    70.900  67.820  67.100
   C    71.660  66.250  65.740
   C    72.490  67.090  64.790
   C    72.600  65.920  66.890
   C    71.160  64.940  65.140
   C    68.010  62.010  62.700
   C    66.790  62.600  61.890
   C    67.070  64.000  61.330
   C    66.520  61.610  60.720
   O    66.630  60.350  60.880
   O    66.220  62.090  59.560
   C    66.050  61.340  58.340
   C    65.340  62.210  57.300
   C    64.980  61.490  56.030
   C    63.820  60.400  56.160
   C    64.560  62.510  55.020
   N    66.300  60.820  55.530
   H    66.560  60.950  54.480
   C    67.320  60.170  56.460
   C    68.680  60.210  55.660
   C    67.030  58.660  56.650
   C    67.400  60.970  57.750
   C    65.470  62.760  62.750
   C    64.520  61.640  63.350
   C    65.320  60.570  64.060
   C    63.640  61.020  62.230
   O    63.590  61.420  61.030
   O    62.980  59.980  62.720
   C    61.990  59.240  62.000
   C    62.610  57.930  61.550
   C    61.670  57.100  60.740
   C    62.180  55.640  60.680
   C    61.690  57.680  59.250
   N    60.260  57.130  61.320
   O    59.450  56.310  60.810
   C    59.820  58.200  62.280
   C    58.980  57.560  63.380
   C    58.870  59.240  61.470
   C    60.950  58.940  63.010
   C    63.600  62.200  64.500
   H    75.750  59.410  61.130
   H    76.810  58.600  60.130
   H    76.400  60.350  59.830
   H    73.670  56.880  59.290
   H    74.480  57.310  60.820
   H    75.390  56.670  59.480
   H    76.910  59.110  55.950
   H    75.070  60.430  54.890
   H    75.630  61.920  55.620
   H    77.640  59.960  52.280
   H    75.890  59.690  52.640
   H    77.100  58.970  53.660
   H    76.680  63.160  53.690
   H    75.480  62.270  52.840
   H    77.150  62.300  52.180
   H    80.780  59.780  55.360
   H    79.690  58.990  56.350
   H    79.320  59.110  54.630
   H    80.560  61.890  57.000
   H    79.440  63.030  56.320
   H    80.640  62.270  55.310
   H    77.380  61.760  57.010
   H    78.210  60.260  57.660
   H    73.800  59.990  60.490
   H    74.070  60.780  58.960
   H    71.250  58.580  57.270
   H    72.690  57.820  57.640
   H    72.830  59.320  56.880
   H    70.350  56.700  61.170
   H    68.570  58.490  61.430
   H    67.810  57.880  59.990
   H    68.580  57.440  63.840
   H    68.050  55.740  63.760
   H    69.610  56.240  63.050
   H    65.860  56.390  62.780
   H    65.670  57.140  61.270
   H    66.410  58.070  62.550
   H    69.850  53.060  60.020
   H    70.380  54.250  61.210
   H    68.990  53.220  61.550
   H    66.690  54.590  58.920
   H    68.190  54.080  58.160
   H    67.330  53.090  59.450
   H    68.870  56.420  58.670
   H    70.210  55.440  58.800
   H    70.460  60.660  58.290
   H    71.820  61.460  57.990
   H    69.790  62.800  58.260
   H    69.940  63.980  59.540
   H    71.270  63.640  58.400
   H    74.120  64.240  61.590
   H    73.260  66.080  60.200
   H    74.080  65.590  58.830
   H    74.340  67.840  61.640
   H    75.970  67.670  61.970
   H    74.770  66.340  62.420
   H    76.220  66.920  58.460
   H    74.820  67.860  58.890
   H    76.450  68.200  59.590
   H    77.660  64.020  62.420
   H    76.690  62.590  62.280
   H    76.050  64.170  62.770
   H    78.750  64.000  59.880
   H    77.930  62.410  60.260
   H    77.760  63.280  58.790
   H    75.310  62.380  60.460
   H    75.360  63.390  59.020
   H    69.870  60.500  60.930
   H    69.040  61.750  60.210
   H    70.060  61.270  64.340
   H    71.330  61.310  63.220
   H    70.050  60.210  63.020
   H    69.950  66.030  63.630
   H    68.460  65.060  66.180
   H    67.830  65.890  64.810
   H    67.310  67.440  67.060
   H    68.690  68.360  67.740
   H    68.550  66.660  68.050
   H    68.940  69.210  65.310
   H    69.320  68.210  64.010
   H    67.750  68.250  64.670
   H    72.700  67.990  65.360
   H    73.410  66.580  64.520
   H    71.940  67.320  63.870
   H    72.170  65.260  67.640
   H    73.410  65.320  66.480
   H    73.130  66.720  67.420
   H    70.890  64.180  65.890
   H    71.880  64.470  64.470
   H    67.720  60.990  62.950
   H    67.780  62.500  63.640
   H    68.020  64.050  60.810
   H    67.110  64.640  62.210
   H    66.340  64.450  60.650
   H    65.390  60.490  58.510
   H    65.830  63.150  57.060
   H    64.370  62.590  57.620
   H    62.940  60.630  56.770
   H    64.230  59.630  56.810
   H    63.540  59.850  55.260
   H    65.420  63.100  54.690
   H    63.730  63.140  55.350
   H    64.270  61.890  54.180
   H    69.100  61.220  55.650
   H    68.610  59.830  54.650
   H    69.420  59.620  56.200
   H    67.020  58.020  55.760
   H    66.040  58.560  57.110
   H    67.680  58.140  57.360
   H    68.140  61.760  57.650
   H    67.700  60.290  58.560
   H    65.760  63.230  63.690
   H    64.860  63.490  62.220
   H    65.760  59.890  63.330
   H    65.990  61.030  64.780
   H    64.590  59.980  64.610
   H    61.590  59.660  61.080
   H    62.910  57.370  62.440
   H    63.570  58.100  61.060
   H    62.230  55.220  61.680
   H    63.170  55.490  60.260
   H    61.450  55.080  60.080
   H    62.520  57.230  58.710
   H    60.750  57.390  58.770
   H    61.820  58.760  59.240
   H    58.610  58.320  64.060
   H    58.100  57.060  62.980
   H    59.530  56.880  64.030
   H    58.810  60.220  61.940
   H    57.940  58.720  61.250
   H    59.270  59.420  60.470
   H    61.320  58.430  63.900
   H    60.750  59.950  63.380
   H    64.250  62.600  65.280
   H    63.020  63.090  64.280
   H    62.900  61.590  65.070
  