239
PTMA_CHAIN3_time0point005
 C    105.520  54.540  68.860
   C    106.310  55.830  68.850
   C    107.820  55.380  68.780
   C    106.090  56.550  70.150
   O    106.900  56.610  71.070
   O    104.800  56.890  70.300
   C    104.280  57.110  71.640
   C    104.600  58.470  72.100
   C    104.120  58.700  73.590
   C    105.140  58.220  74.520
   C    103.830  60.220  73.860
   N    102.850  57.870  73.840
   H    102.450  58.050  74.830
   C    101.890  57.560  72.670
   C    100.840  56.510  73.090
   C    101.180  58.840  72.150
   C    102.760  56.930  71.590
   C    105.860  56.690  67.610
   C    106.720  57.760  66.900
   C    107.200  58.780  67.960
   C    107.950  57.140  66.240
   O    109.130  57.520  66.320
   O    107.610  56.130  65.420
   C    108.540  55.520  64.470
   C    108.970  54.150  64.900
   C    108.260  52.990  64.280
   C    108.940  51.700  64.790
   C    106.790  52.900  64.710
   N    108.300  53.100  62.780
   H    108.760  52.260  62.250
   C    108.440  54.440  62.170
   C    109.940  54.760  61.810
   C    107.640  54.490  60.870
   C    107.870  55.550  63.100
   C    105.880  58.460  65.800
   C    106.100  59.860  65.140
   C    105.440  60.970  66.010
   C    105.380  59.690  63.750
   O    105.790  58.960  62.880
   O    104.140  60.290  63.760
   C    103.290  59.870  62.640
   C    103.650  60.610  61.310
   C    102.840  60.230  60.160
   C    103.180  58.810  59.670
   C    103.220  61.180  58.990
   N    101.310  60.330  60.530
   H    100.620  60.070  59.730
   C    100.840  59.930  61.840
   C    100.560  58.380  61.920
   C    99.510  60.650  62.090
   C    101.870  60.330  62.930
   C    107.580  60.220  64.900
   C    108.280  61.210  63.790
   C    107.830  60.770  62.380
   C    107.810  62.700  63.790
   O    108.630  63.570  63.340
   O    106.580  63.010  64.230
   C    106.140  64.290  63.890
   C    104.600  64.250  63.610
   C    103.660  65.030  64.590
   C    103.530  64.340  65.930
   C    102.250  65.030  63.960
   N    104.200  66.440  64.870
   H    103.540  67.250  64.570
   C    105.700  66.660  64.740
   C    106.150  67.330  63.380
   C    106.070  67.620  65.900
   C    106.500  65.340  64.900
   C    109.790  61.100  63.850
   C    110.770  61.510  65.010
   C    112.030  61.940  64.310
   C    110.350  62.760  65.840
   O    110.520  63.880  65.400
   O    109.800  62.450  67.000
   C    110.040  63.460  68.010
   C    108.890  64.500  68.080
   C    109.270  65.600  69.100
   C    110.080  66.660  68.340
   C    107.940  66.240  69.640
   N    110.240  65.090  70.210
   H    110.610  65.670  71.060
   C    110.090  63.660  70.620
   C    108.780  63.380  71.320
   C    111.190  63.220  71.530
   C    110.160  62.740  69.380
   C    111.100  60.310  65.960
   C    112.130  59.150  65.700
   C    111.820  58.400  64.340
   C    112.110  58.170  66.920
   O    112.030  58.530  68.050
   O    112.480  56.870  66.570
   C    112.910  56.010  67.510
   C    112.410  54.580  67.250
   C    112.970  53.480  68.120
   C    112.750  52.170  67.340
   C    112.160  53.450  69.430
   N    114.440  53.640  68.470
   O    115.070  52.550  68.730
   C    115.180  54.680  67.620
   C    115.450  54.140  66.180
   C    116.570  54.940  68.290
   C    114.470  56.000  67.630
   C    113.600  59.630  65.650
   H    105.880  53.800  68.150
   H    105.650  54.030  69.810
   H    104.430  54.640  68.830
   H    108.080  54.820  67.890
   H    108.080  54.710  69.600
   H    108.420  56.290  68.870
   H    104.720  56.290  72.210
   H    105.650  58.720  72.270
   H    104.100  59.230  71.510
   H    105.500  57.200  74.460
   H    104.870  58.480  75.550
   H    106.090  58.720  74.380
   H    104.680  60.800  73.520
   H    103.660  60.410  74.920
   H    103.060  60.730  73.270
   H    100.140  56.810  73.880
   H    100.150  56.220  72.300
   H    101.400  55.690  73.520
   H    101.870  59.570  71.730
   H    100.720  59.260  73.040
   H    100.450  58.540  71.390
   H    102.340  57.340  70.660
   H    102.720  55.850  71.560
   H    105.720  55.950  66.830
   H    104.930  57.160  67.910
   H    107.800  59.630  67.630
   H    107.790  58.300  68.740
   H    106.420  59.140  68.620
   H    109.480  56.070  64.400
   H    110.050  54.000  64.800
   H    108.960  54.060  65.990
   H    110.000  51.590  64.570
   H    108.950  51.710  65.880
   H    108.500  50.790  64.380
   H    106.400  51.990  64.270
   H    106.100  53.730  64.570
   H    106.850  52.780  65.800
   H    110.030  55.780  61.430
   H    110.680  54.640  62.600
   H    110.350  54.100  61.050
   H    108.150  53.790  60.200
   H    106.590  54.330  61.130
   H    107.720  55.440  60.330
   H    106.810  55.330  63.210
   H    108.040  56.460  62.520
   H    104.880  58.500  66.220
   H    105.780  57.600  65.130
   H    106.000  61.270  66.900
   H    105.150  61.760  65.320
   H    104.530  60.500  66.380
   H    103.180  58.800  62.470
   H    104.670  60.340  61.070
   H    103.700  61.700  61.430
   H    102.520  58.630  58.820
   H    103.010  57.980  60.350
   H    104.240  58.710  59.480
   H    102.930  62.200  59.250
   H    104.290  61.070  58.880
   H    102.680  60.860  58.100
   H    100.110  58.130  62.880
   H    101.400  57.740  61.650
   H    99.910  58.160  61.080
   H    99.750  61.720  62.070
   H    98.760  60.350  61.350
   H    99.240  60.380  63.110
   H    101.570  59.810  63.840
   H    101.820  61.410  63.100
   H    108.140  59.310  64.690
   H    107.850  60.660  65.860
   H    107.900  59.710  62.140
   H    108.240  61.320  61.530
   H    106.800  60.970  62.060
   H    106.480  64.600  62.900
   H    104.290  63.210  63.600
   H    104.380  64.690  62.640
   H    103.240  63.290  65.840
   H    102.750  64.910  66.420
   H    104.390  64.240  66.590
   H    101.590  65.660  64.550
   H    102.260  65.350  62.920
   H    101.830  64.020  63.940
   H    107.230  67.280  63.230
   H    105.690  66.770  62.570
   H    105.760  68.340  63.260
   H    105.750  67.010  66.760
   H    107.140  67.810  65.860
   H    105.690  68.640  65.860
   H    106.310  64.920  65.890
   H    107.550  65.620  64.870
   H    109.950  60.050  63.610
   H    110.130  61.620  62.950
   H    112.450  61.290  63.550
   H    112.820  62.240  65.010
   H    111.970  62.930  63.860
   H    111.000  63.960  67.860
   H    108.080  63.910  68.500
   H    108.550  64.910  67.130
   H    109.420  67.170  67.640
   H    111.030  66.240  67.990
   H    110.240  67.570  68.910
   H    107.250  66.480  68.830
   H    108.230  67.140  70.180
   H    107.180  65.730  70.240
   H    108.690  63.940  72.240
   H    108.740  62.340  71.620
   H    107.900  63.390  70.680
   H    112.190  63.400  71.150
   H    111.260  62.140  71.710
   H    110.960  63.720  72.470
   H    109.400  61.950  69.360
   H    111.170  62.340  69.390
   H    111.340  60.630  66.980
   H    110.180  59.820  66.290
   H    111.970  58.960  63.420
   H    112.510  57.570  64.180
   H    110.860  57.890  64.480
   H    112.580  56.250  68.520
   H    112.550  54.380  66.180
   H    111.320  54.640  67.170
   H    113.340  52.050  66.430
   H    111.730  52.040  66.960
   H    112.980  51.310  67.960
   H    112.540  52.610  70.020
   H    112.260  54.390  69.970
   H    111.090  53.470  69.250
   H    116.120  54.860  65.710
   H    116.080  53.260  66.340
   H    114.510  53.970  65.660
   H    117.080  55.780  67.810
   H    117.180  54.040  68.200
   H    116.410  55.190  69.340
   H    114.940  56.540  66.810
   H    114.660  56.600  68.510
   H    113.750  60.400  66.400
   H    114.260  58.820  65.960
   H    113.930  59.960  64.660
  