239
PTMA_CHAIN2_time4
 C    73.940  9.050  73.900
   C    74.020  10.390  73.180
   C    75.400  10.430  72.550
   C    73.990  11.480  74.300
   O    75.090  11.920  74.760
   O    72.720  11.610  74.770
   C    72.630  12.290  76.070
   C    72.490  13.760  75.770
   C    72.090  14.550  76.980
   C    73.390  15.160  77.520
   C    71.190  15.730  76.480
   N    71.370  13.800  78.040
   H    70.970  14.320  78.910
   C    71.230  12.310  78.070
   C    72.130  11.640  79.040
   C    69.760  12.090  78.490
   C    71.360  11.790  76.640
   C    72.880  10.570  72.110
   C    72.770  11.820  71.150
   C    72.640  13.060  72.060
   C    74.080  12.060  70.270
   O    74.760  13.060  70.360
   O    74.460  10.950  69.650
   C    75.680  10.840  68.960
   C    76.090  9.410  68.890
   C    77.410  9.110  68.160
   C    78.550  9.130  69.220
   C    77.360  7.720  67.380
   N    77.800  10.190  67.170
   O    78.760  10.080  66.450
   C    77.110  11.490  66.940
   C    77.960  12.640  67.540
   C    76.980  11.810  65.370
   C    75.710  11.480  67.570
   C    71.420  11.640  70.310
   C    70.920  12.480  69.080
   C    69.550  11.950  68.670
   C    71.880  12.250  67.840
   O    72.590  13.140  67.430
   O    71.710  11.050  67.290
   C    72.220  10.670  66.070
   C    71.380  11.290  64.950
   C    71.880  10.890  63.600
   C    73.030  11.890  63.210
   C    70.840  11.070  62.500
   N    72.490  9.540  63.720
   H    73.270  9.290  62.990
   C    72.230  8.530  64.740
   C    73.510  7.680  64.840
   C    71.100  7.650  64.300
   C    71.970  9.200  66.060
   C    70.930  14.070  69.440
   C    70.150  15.160  68.610
   C    70.120  14.960  67.120
   C    68.630  15.110  68.910
   O    68.140  14.410  69.750
   O    67.910  16.030  68.330
   C    66.540  15.880  68.260
   C    65.830  16.790  69.360
   C    64.330  16.480  69.260
   C    63.510  17.630  69.820
   C    64.060  15.130  70.140
   N    63.750  16.130  67.910
   O    62.620  15.670  67.830
   C    64.590  16.220  66.630
   C    64.450  15.060  65.720
   C    64.090  17.460  65.790
   C    66.100  16.470  66.950
   C    70.700  16.630  68.870
   C    70.840  17.410  70.190
   C    70.820  18.950  69.810
   C    69.590  17.070  70.990
   O    68.620  17.830  70.970
   O    69.710  16.010  71.770
   C    68.560  15.600  72.600
   C    68.690  14.150  73.070
   C    67.510  13.730  73.800
   C    66.550  12.880  72.910
   C    67.970  12.750  74.930
   N    66.780  14.810  74.550
   H    65.860  14.500  75.040
   C    67.260  16.240  74.660
   C    67.430  16.660  76.120
   C    66.080  17.160  74.090
   C    68.480  16.460  73.820
   C    72.180  17.090  70.980
   C    72.810  17.960  72.190
   C    73.590  19.190  71.610
   C    73.900  17.130  72.850
   O    73.770  16.730  73.990
   O    75.030  16.860  72.070
   C    76.130  16.080  72.590
   C    77.050  15.490  71.450
   C    78.230  14.680  71.980
   C    79.250  14.470  70.830
   C    77.800  13.250  72.500
   N    78.960  15.420  73.040
   O    80.080  15.020  73.320
   C    78.240  16.320  74.030
   C    79.230  17.400  74.460
   C    77.850  15.390  75.250
   C    77.050  17.000  73.490
   C    71.730  18.390  73.250
   H    74.300  8.280  73.210
   H    74.420  8.980  74.870
   H    72.860  8.960  74.030
   H    75.840  11.410  72.410
   H    75.490  10.080  71.520
   H    76.140  9.980  73.220
   H    73.520  12.050  76.670
   H    73.390  14.100  75.260
   H    71.660  13.860  75.070
   H    73.960  14.390  78.040
   H    73.140  15.920  78.270
   H    74.030  15.660  76.790
   H    70.910  16.340  77.340
   H    70.330  15.430  75.880
   H    71.770  16.430  75.890
   H    71.870  10.610  79.270
   H    73.180  11.710  78.750
   H    72.080  12.140  80.010
   H    69.690  12.210  79.570
   H    69.600  11.050  78.210
   H    69.060  12.790  78.040
   H    70.510  12.180  76.080
   H    71.210  10.720  76.650
   H    72.920  9.740  71.400
   H    71.930  10.420  72.610
   H    71.790  13.050  72.750
   H    72.490  13.980  71.500
   H    73.510  13.270  72.680
   H    76.420  11.330  69.590
   H    75.980  9.070  69.910
   H    75.280  8.810  68.460
   H    79.560  9.140  68.830
   H    78.470  10.120  69.680
   H    78.470  8.330  69.960
   H    77.210  6.850  68.010
   H    78.350  7.600  66.920
   H    76.700  7.790  66.510
   H    79.000  12.400  67.760
   H    77.990  13.510  66.880
   H    77.630  13.120  68.460
   H    77.920  12.070  64.890
   H    76.780  10.940  64.740
   H    76.240  12.600  65.210
   H    75.130  10.950  66.810
   H    75.310  12.500  67.580
   H    70.590  11.760  71.000
   H    71.340  10.580  70.030
   H    69.310  12.270  67.660
   H    69.470  10.860  68.680
   H    68.730  12.090  69.380
   H    73.290  10.870  66.050
   H    71.490  12.380  64.990
   H    70.350  10.950  65.040
   H    73.550  11.690  62.270
   H    73.890  11.860  63.880
   H    72.680  12.920  63.230
   H    69.810  10.930  62.800
   H    70.910  12.020  61.960
   H    70.990  10.360  61.680
   H    73.520  7.120  65.770
   H    74.400  8.310  64.940
   H    73.730  7.030  64.000
   H    71.140  7.410  63.240
   H    71.210  6.660  64.740
   H    70.140  8.150  64.420
   H    72.470  8.750  66.920
   H    70.930  9.040  66.320
   H    71.980  14.380  69.390
   H    70.740  14.230  70.500
   H    69.620  14.050  66.790
   H    71.160  14.860  66.800
   H    69.710  15.770  66.520
   H    66.120  14.870  68.250
   H    66.100  17.840  69.240
   H    66.140  16.470  70.350
   H    62.490  17.430  70.140
   H    63.510  18.490  69.150
   H    64.020  17.980  70.710
   H    64.520  15.340  71.100
   H    63.000  14.920  70.290
   H    64.610  14.340  69.610
   H    63.410  14.830  65.500
   H    64.920  15.360  64.780
   H    65.010  14.230  66.160
   H    64.780  17.700  64.980
   H    63.040  17.330  65.540
   H    63.940  18.400  66.330
   H    66.280  17.540  67.010
   H    66.800  16.110  66.200
   H    71.740  16.560  68.560
   H    70.180  17.300  68.180
   H    71.590  19.220  69.080
   H    70.840  19.680  70.620
   H    69.960  19.330  69.270
   H    67.670  15.690  71.970
   H    69.590  14.020  73.690
   H    68.920  13.520  72.210
   H    65.950  13.620  72.380
   H    65.940  12.240  73.540
   H    67.000  12.230  72.160
   H    68.350  13.190  75.850
   H    68.460  11.850  74.550
   H    67.110  12.180  75.300
   H    68.040  17.560  76.170
   H    67.890  15.820  76.640
   H    66.500  16.740  76.680
   H    66.070  18.180  74.480
   H    65.100  16.850  74.440
   H    66.110  17.140  73.000
   H    69.350  16.490  74.480
   H    68.430  17.520  73.610
   H    71.990  16.110  71.400
   H    72.970  16.890  70.250
   H    72.920  20.050  71.510
   H    74.350  19.580  72.290
   H    73.920  19.060  70.580
   H    75.840  15.290  73.270
   H    77.220  16.390  70.850
   H    76.370  14.890  70.850
   H    78.630  14.160  69.990
   H    79.990  13.700  71.060
   H    79.810  15.380  70.590
   H    78.520  12.830  73.190
   H    76.860  13.360  73.050
   H    77.800  12.570  71.650
   H    80.150  17.050  74.930
   H    79.520  18.100  73.670
   H    78.760  17.790  75.360
   H    78.540  15.520  76.070
   H    77.950  14.350  74.950
   H    76.870  15.620  75.670
   H    77.330  17.940  73.010
   H    76.410  17.290  74.330
   H    71.590  17.480  73.840
   H    72.170  19.110  73.940
   H    70.850  18.860  72.810
  