239
PTMA_CHAIN7_time20
 C    10.840  11.890  6.390
   C    10.390  12.960  5.380
   C    10.680  12.320  3.970
   C    11.350  14.170  5.580
   O    11.580  14.660  6.700
   O    11.820  14.650  4.430
   C    12.740  15.740  4.480
   C    14.120  15.160  4.800
   C    15.170  16.180  4.900
   C    15.070  17.050  6.210
   C    16.550  15.480  4.860
   N    15.050  17.100  3.710
   H    15.980  17.260  3.170
   C    13.800  17.590  3.130
   C    13.350  18.760  3.940
   C    14.040  18.030  1.700
   C    12.770  16.470  3.180
   C    8.820  13.310  5.360
   C    8.180  14.120  6.610
   C    8.780  13.850  8.070
   C    8.260  15.660  6.420
   O    7.680  16.420  7.220
   O    8.890  16.080  5.400
   C    8.700  17.410  4.960
   C    9.700  18.430  5.600
   C    9.340  19.880  5.310
   C    8.000  20.250  6.040
   C    10.580  20.650  5.950
   N    9.080  20.080  3.810
   O    9.310  21.200  3.350
   C    8.740  18.880  2.870
   C    7.310  19.140  2.370
   C    9.720  18.890  1.670
   C    8.860  17.470  3.460
   C    6.710  13.720  6.750
   C    5.440  14.260  5.860
   C    4.420  13.100  5.910
   C    5.870  14.420  4.320
   O    6.060  15.500  3.880
   O    5.810  13.370  3.500
   C    5.910  13.560  2.110
   C    5.150  12.360  1.490
   C    5.200  12.400  0.010
   C    3.880  12.990  -0.480
   C    5.310  11.080  -0.620
   N    6.300  13.240  -0.550
   H    6.210  13.630  -1.570
   C    7.540  13.720  0.180
   C    7.590  15.170  -0.010
   C    8.870  13.050  -0.360
   C    7.360  13.430  1.670
   C    4.780  15.510  6.450
   C    3.390  16.310  6.190
   C    3.140  16.510  4.640
   C    2.130  15.590  6.720
   O    2.260  14.620  7.540
   O    1.010  16.200  6.320
   C    -0.180  15.500  6.490
   C    -0.860  15.590  7.860
   C    -1.920  14.620  8.130
   C    -2.920  15.160  9.140
   C    -1.340  13.340  8.600
   N    -2.680  14.240  6.890
   O    -3.550  13.360  6.970
   C    -2.580  15.070  5.630
   C    -2.570  14.150  4.520
   C    -3.750  16.000  5.580
   C    -1.170  15.800  5.430
   C    3.630  17.760  6.740
   C    3.720  18.070  8.290
   C    3.290  19.600  8.330
   C    2.730  17.260  9.160
   O    1.640  17.740  9.530
   O    3.360  16.290  9.690
   C    2.820  15.300  10.570
   C    3.710  14.060  10.580
   C    2.940  12.940  11.180
   C    2.150  12.230  10.080
   C    3.940  11.970  11.820
   N    2.050  13.350  12.290
   H    1.550  12.530  12.810
   C    1.910  14.730  12.810
   C    2.240  14.820  14.300
   C    0.420  14.950  12.660
   C    2.780  15.750  12.020
   C    5.250  17.980  8.820
   C    5.760  18.730  10.130
   C    6.250  20.190  9.910
   C    7.020  18.000  10.660
   O    6.920  16.910  11.170
   O    8.180  18.660  10.400
   C    9.400  18.020  10.700
   C    10.450  18.750  9.900
   C    11.830  18.060  10.040
   C    12.910  19.030  9.530
   C    11.800  16.710  9.290
   N    12.100  17.660  11.440
   O    13.190  17.180  11.690
   C    11.090  17.850  12.540
   C    11.700  18.970  13.380
   C    11.000  16.640  13.440
   C    9.600  18.180  12.140
   C    4.610  18.700  11.290
   H    11.770  11.410  6.050
   H    10.890  12.110  7.450
   H    10.170  11.040  6.220
   H    10.270  12.850  3.110
   H    10.210  11.330  3.890
   H    11.740  12.160  3.800
   H    12.450  16.400  5.300
   H    14.090  14.790  5.830
   H    14.420  14.350  4.140
   H    15.660  17.960  6.110
   H    15.510  16.590  7.090
   H    14.040  17.330  6.450
   H    16.620  14.800  5.710
   H    17.360  16.200  4.990
   H    16.670  14.800  4.010
   H    12.380  19.010  3.500
   H    13.120  18.570  4.990
   H    14.000  19.630  3.860
   H    13.060  17.990  1.220
   H    14.780  17.470  1.120
   H    14.420  19.050  1.660
   H    12.890  15.790  2.330
   H    11.750  16.830  3.060
   H    8.570  13.880  4.470
   H    8.190  12.430  5.240
   H    9.820  14.150  8.240
   H    8.810  12.800  8.350
   H    8.190  14.330  8.850
   H    7.700  17.820  5.130
   H    9.850  18.180  6.650
   H    10.710  18.140  5.330
   H    7.920  21.320  5.880
   H    7.180  19.680  5.610
   H    8.040  20.130  7.120
   H    10.720  20.550  7.030
   H    10.270  21.680  5.750
   H    11.580  20.430  5.590
   H    7.070  18.380  1.640
   H    6.620  19.060  3.220
   H    7.310  20.060  1.790
   H    9.580  19.800  1.090
   H    10.760  19.090  1.950
   H    9.690  18.080  0.940
   H    9.840  17.060  3.210
   H    8.130  16.870  2.920
   H    6.330  13.880  7.760
   H    6.630  12.640  6.900
   H    3.560  13.320  5.290
   H    4.910  12.250  5.440
   H    4.190  12.740  6.920
   H    5.380  14.470  1.830
   H    4.150  12.270  1.920
   H    5.650  11.430  1.730
   H    3.020  12.530  0.020
   H    3.750  12.910  -1.550
   H    3.860  14.050  -0.200
   H    4.330  10.620  -0.500
   H    5.440  11.110  -1.710
   H    6.170  10.520  -0.250
   H    7.800  15.530  -1.020
   H    8.360  15.640  0.590
   H    6.620  15.570  0.290
   H    9.810  13.250  0.180
   H    8.640  12.000  -0.530
   H    9.070  13.380  -1.380
   H    7.830  14.230  2.240
   H    7.890  12.540  2.010
   H    5.560  16.260  6.310
   H    4.690  15.340  7.520
   H    4.060  16.750  4.120
   H    2.530  17.360  4.350
   H    2.820  15.580  4.150
   H    -0.010  14.420  6.460
   H    -1.230  16.600  8.030
   H    -0.090  15.440  8.610
   H    -3.720  14.410  9.140
   H    -3.400  16.090  8.820
   H    -2.590  15.160  10.180
   H    -0.640  12.840  7.930
   H    -0.880  13.600  9.560
   H    -2.060  12.610  8.970
   H    -1.870  13.310  4.540
   H    -3.540  13.660  4.540
   H    -2.500  14.660  3.550
   H    -4.130  16.160  4.570
   H    -4.540  15.430  6.070
   H    -3.650  16.870  6.230
   H    -1.360  16.870  5.410
   H    -0.760  15.530  4.460
   H    4.470  18.220  6.220
   H    2.850  18.350  6.250
   H    3.050  19.950  9.340
   H    2.380  19.900  7.830
   H    3.980  20.240  7.780
   H    1.810  15.040  10.250
   H    4.630  14.230  11.130
   H    4.120  13.950  9.580
   H    1.650  11.280  10.280
   H    2.840  11.970  9.270
   H    1.430  12.860  9.550
   H    4.540  11.470  11.050
   H    3.480  11.250  12.490
   H    4.480  12.590  12.530
   H    3.300  14.610  14.440
   H    1.680  14.120  14.920
   H    2.050  15.840  14.650
   H    -0.190  14.350  13.340
   H    0.050  14.810  11.640
   H    0.190  15.950  13.020
   H    3.750  15.660  12.510
   H    2.370  16.740  12.170
   H    5.500  16.930  8.960
   H    6.020  18.220  8.080
   H    7.020  20.330  9.160
   H    5.340  20.740  9.680
   H    6.560  20.600  10.870
   H    9.370  16.940  10.560
   H    10.420  19.810  10.170
   H    9.970  18.710  8.920
   H    12.850  20.000  10.020
   H    12.900  19.190  8.450
   H    13.930  18.710  9.720
   H    12.740  16.170  9.150
   H    10.890  16.170  9.550
   H    11.660  16.900  8.230
   H    10.860  19.330  13.970
   H    12.490  18.550  14.010
   H    12.220  19.720  12.790
   H    11.880  16.280  13.980
   H    10.700  15.760  12.870
   H    10.140  16.710  14.100
   H    9.370  19.200  12.470
   H    8.850  17.540  12.600
   H    3.640  18.990  10.890
   H    4.510  17.740  11.790
   H    4.800  19.450  12.050
  