239
PTMA_CHAIN9_frame3
 C    80.690  38.470  59.190
   C    80.220  38.960  60.600
   C    81.510  39.440  61.390
   C    79.680  37.710  61.360
   O    79.610  37.780  62.610
   O    79.360  36.570  60.600
   C    78.960  35.370  61.220
   C    77.490  35.180  61.180
   C    77.020  33.780  61.740
   C    76.990  33.910  63.220
   C    75.490  33.580  61.310
   N    77.870  32.640  61.320
   O    77.330  31.480  61.230
   C    79.320  32.870  60.990
   C    80.140  32.700  62.370
   C    79.740  31.840  59.910
   C    79.550  34.240  60.350
   C    79.250  40.150  60.480
   C    77.720  40.050  59.920
   C    77.630  39.060  58.640
   C    76.710  39.560  60.990
   O    76.040  38.540  60.800
   O    76.800  40.240  62.200
   C    76.220  39.790  63.380
   C    76.930  38.610  64.050
   C    76.120  38.040  65.270
   C    74.820  37.380  64.680
   C    77.000  36.910  65.960
   N    75.640  39.140  66.180
   O    75.330  38.830  67.310
   C    75.680  40.620  65.740
   C    74.220  41.110  65.640
   C    76.310  41.450  66.820
   C    76.310  40.960  64.350
   C    77.390  41.570  59.460
   C    75.900  42.000  59.070
   C    75.230  40.940  58.150
   C    76.200  43.260  58.240
   O    77.040  44.080  58.520
   O    75.560  43.340  57.040
   C    75.940  44.190  55.980
   C    75.230  45.470  56.050
   C    75.860  46.500  55.060
   C    77.260  47.110  55.590
   C    74.950  47.710  55.080
   N    76.000  45.980  53.620
   O    76.240  46.790  52.720
   C    76.040  44.470  53.320
   C    77.440  44.020  52.850
   C    75.160  44.120  52.070
   C    75.610  43.550  54.560
   C    75.000  42.280  60.340
   C    74.000  43.440  60.510
   C    74.710  44.820  60.740
   C    72.960  43.700  59.380
   O    72.690  44.820  58.920
   O    72.600  42.540  58.740
   C    71.480  42.620  57.810
   C    71.920  43.140  56.390
   C    70.900  43.020  55.220
   C    71.610  43.350  53.870
   C    69.840  44.120  55.500
   N    70.140  41.740  55.270
   O    69.380  41.490  54.360
   C    70.030  40.890  56.520
   C    68.690  41.220  57.180
   C    69.930  39.390  56.130
   C    71.150  41.160  57.510
   C    73.340  43.260  61.990
   C    71.750  43.240  62.200
   C    70.900  44.530  61.720
   C    71.150  42.000  61.520
   O    70.130  42.180  60.840
   O    71.780  40.830  61.840
   C    71.350  39.630  61.140
   C    72.630  38.910  60.570
   C    72.400  37.460  60.110
   C    71.570  37.640  58.810
   C    73.730  36.740  59.760
   N    71.610  36.640  61.090
   O    71.970  35.450  61.170
   C    70.540  37.300  61.950
   C    70.370  36.480  63.220
   C    69.160  37.180  61.250
   C    70.870  38.770  62.360
   C    71.640  42.950  63.720
   C    70.350  42.880  64.600
   C    69.990  44.380  64.840
   C    70.760  42.170  65.920
   O    71.310  42.800  66.840
   O    70.540  40.840  65.930
   C    70.770  40.000  67.060
   C    69.700  40.190  68.140
   C    69.860  39.290  69.310
   C    68.500  39.280  70.030
   C    71.010  39.730  70.310
   N    70.150  37.850  68.990
   O    70.000  36.980  69.880
   C    70.710  37.410  67.650
   C    69.950  36.210  67.150
   C    72.180  37.030  67.760
   C    70.540  38.580  66.620
   C    69.180  42.260  63.920
   H    81.190  39.180  58.530
   H    81.500  37.770  59.410
   H    80.020  38.020  58.450
   H    81.140  39.950  62.280
   H    82.040  40.200  60.820
   H    82.170  38.610  61.640
   H    79.330  35.310  62.240
   H    77.090  35.950  61.840
   H    77.000  35.300  60.210
   H    76.890  32.900  63.640
   H    76.100  34.470  63.510
   H    77.860  34.320  63.740
   H    75.190  32.660  61.800
   H    75.480  33.520  60.220
   H    74.710  34.300  61.560
   H    79.900  31.710  62.740
   H    81.220  32.870  62.310
   H    79.830  33.410  63.130
   H    79.050  31.890  59.080
   H    79.730  30.810  60.260
   H    80.720  32.090  59.500
   H    78.960  34.260  59.430
   H    80.600  34.480  60.190
   H    79.090  40.530  61.490
   H    79.760  40.930  59.930
   H    76.600  38.840  58.360
   H    78.020  38.060  58.790
   H    78.120  39.630  57.850
   H    75.160  39.650  63.190
   H    77.160  37.780  63.380
   H    77.880  38.950  64.460
   H    73.960  38.050  64.660
   H    74.990  37.070  63.650
   H    74.430  36.520  65.220
   H    77.620  36.450  65.190
   H    76.350  36.140  66.380
   H    77.600  37.270  66.800
   H    73.980  42.090  65.230
   H    73.630  40.330  65.160
   H    73.830  41.130  66.660
   H    77.330  41.050  66.910
   H    76.390  42.510  66.590
   H    75.730  41.390  67.740
   H    77.330  41.300  64.540
   H    75.900  41.800  63.790
   H    78.040  41.650  58.600
   H    77.720  42.290  60.210
   H    76.000  40.640  57.440
   H    74.990  40.080  58.770
   H    74.290  41.200  57.670
   H    77.020  44.350  56.010
   H    75.420  45.780  57.080
   H    74.150  45.340  56.030
   H    77.550  47.930  54.930
   H    78.100  46.440  55.450
   H    77.200  47.370  56.640
   H    75.080  48.500  54.340
   H    73.930  47.400  54.840
   H    74.850  48.320  55.980
   H    77.800  44.830  52.210
   H    77.470  43.060  52.330
   H    78.210  43.880  53.610
   H    74.150  44.440  52.280
   H    75.570  44.480  51.120
   H    75.140  43.030  52.080
   H    76.110  42.580  54.510
   H    74.530  43.410  54.560
   H    75.710  42.310  61.170
   H    74.430  41.370  60.470
   H    74.080  45.550  61.250
   H    74.920  45.310  59.790
   H    75.610  44.780  61.340
   H    70.610  43.170  58.170
   H    72.820  42.550  56.240
   H    72.180  44.190  56.510
   H    72.240  42.550  53.500
   H    72.210  44.230  54.100
   H    70.890  43.490  53.060
   H    69.090  43.930  56.270
   H    70.390  45.050  55.650
   H    69.180  44.310  54.640
   H    68.250  40.450  57.820
   H    68.880  42.100  57.790
   H    67.970  41.560  56.440
   H    69.640  38.790  56.990
   H    69.070  39.240  55.480
   H    70.840  39.030  55.660
   H    71.980  40.620  57.050
   H    70.900  40.680  58.460
   H    73.770  42.330  62.350
   H    73.760  43.970  62.700
   H    70.880  44.740  60.650
   H    71.330  45.420  62.180
   H    69.860  44.400  62.030
   H    70.570  39.650  60.380
   H    73.410  39.110  61.310
   H    72.950  39.490  59.710
   H    70.860  38.470  58.800
   H    71.070  36.720  58.520
   H    72.190  37.820  57.940
   H    74.230  37.340  59.000
   H    73.530  35.750  59.360
   H    74.380  36.530  60.620
   H    69.910  35.510  63.090
   H    69.800  37.010  63.980
   H    71.310  36.170  63.680
   H    68.900  36.160  60.970
   H    69.130  37.870  60.410
   H    68.370  37.420  61.960
   H    71.570  38.660  63.190
   H    69.890  39.140  62.650
   H    72.110  41.990  63.930
   H    72.350  43.570  64.270
   H    69.210  44.330  65.610
   H    70.860  44.810  65.340
   H    69.780  45.040  64.000
   H    71.800  40.100  67.420
   H    68.710  40.090  67.680
   H    69.810  41.240  68.430
   H    68.550  38.730  70.960
   H    67.630  38.770  69.610
   H    68.270  40.300  70.360
   H    70.810  40.790  70.480
   H    70.940  39.310  71.320
   H    71.970  39.510  69.860
   H    70.000  35.340  67.800
   H    68.940  36.590  66.980
   H    70.400  35.810  66.250
   H    72.360  36.050  68.210
   H    72.700  37.710  68.430
   H    72.660  37.270  66.810
   H    69.580  38.470  66.100
   H    71.200  38.410  65.770
   H    69.400  41.210  63.690
   H    68.370  42.320  64.650
   H    68.880  42.780  63.010
  