239
PTMA_CHAIN4_time16
 C    98.990  66.620  20.030
   C    98.530  67.610  21.100
   C    98.380  68.940  20.250
   C    99.740  67.680  22.120
   O    99.660  67.210  23.300
   O    100.730  68.480  21.630
   C    101.970  68.570  22.340
   C    103.030  68.660  21.270
   C    104.430  68.750  21.750
   C    104.980  67.420  22.230
   C    105.270  69.330  20.570
   N    104.420  69.840  22.800
   H    105.230  70.570  22.770
   C    103.390  69.990  23.840
   C    103.500  69.050  25.000
   C    103.470  71.470  24.300
   C    102.000  69.780  23.200
   C    97.190  67.140  21.840
   C    96.360  68.110  22.800
   C    97.170  69.130  23.660
   C    95.320  68.990  21.970
   O    94.650  69.840  22.530
   O    95.290  68.680  20.690
   C    94.490  69.460  19.740
   C    95.390  70.630  19.350
   C    94.500  71.580  18.470
   C    93.960  72.720  19.350
   C    95.250  72.310  17.370
   N    93.310  70.960  17.860
   H    92.470  71.550  17.490
   C    93.120  69.530  17.750
   C    91.740  69.250  18.190
   C    93.270  69.250  16.220
   C    94.100  68.690  18.510
   C    95.500  67.300  23.810
   C    94.200  66.360  23.470
   C    94.160  65.430  24.630
   C    94.520  65.540  22.170
   O    94.060  65.900  21.070
   O    95.340  64.480  22.360
   C    95.520  63.510  21.370
   C    94.310  62.590  21.410
   C    94.450  61.340  20.500
   C    93.390  61.390  19.380
   C    94.210  60.100  21.270
   N    95.810  61.070  20.010
   H    95.930  60.180  19.400
   C    97.010  61.830  20.440
   C    97.510  62.500  19.130
   C    98.000  60.800  20.990
   C    96.760  62.730  21.660
   C    92.880  67.210  23.310
   C    91.430  66.550  23.180
   C    91.390  65.470  22.120
   C    90.960  66.150  24.560
   O    91.230  66.870  25.540
   O    90.050  65.100  24.500
   C    89.280  64.680  25.590
   C    88.120  63.870  25.090
   C    87.200  63.400  26.180
   C    86.490  62.110  25.660
   C    86.060  64.470  26.340
   N    87.880  63.110  27.430
   H    87.230  62.790  28.250
   C    89.370  63.060  27.590
   C    89.600  63.650  28.920
   C    89.760  61.540  27.540
   C    90.120  63.740  26.380
   C    90.370  67.540  22.580
   C    89.710  68.890  23.260
   C    88.960  69.570  22.040
   C    88.640  68.510  24.320
   O    87.990  67.420  24.290
   O    88.520  69.470  25.300
   C    87.630  69.340  26.420
   C    88.230  68.840  27.670
   C    87.170  68.740  28.810
   C    86.740  67.320  28.950
   C    87.810  69.160  30.120
   N    86.010  69.650  28.610
   H    85.150  69.470  29.260
   C    86.030  70.830  27.740
   C    86.280  72.050  28.670
   C    84.670  70.830  27.040
   C    87.120  70.760  26.670
   C    90.900  69.900  23.850
   C    90.850  71.470  23.880
   C    89.670  72.130  24.690
   C    90.920  72.080  22.410
   O    91.550  71.490  21.520
   O    89.940  72.940  22.150
   C    89.660  73.460  20.800
   C    88.640  72.510  20.130
   C    88.260  72.910  18.740
   C    87.090  71.960  18.390
   C    89.410  72.660  17.690
   N    87.800  74.430  18.650
   O    86.950  74.850  17.830
   C    88.490  75.420  19.510
   C    87.600  76.650  19.780
   C    89.740  75.910  18.780
   C    89.010  74.860  20.850
   C    92.180  72.020  24.450
   H    98.970  65.580  20.340
   H    98.360  66.690  19.140
   H    100.010  66.740  19.660
   H    98.270  69.860  20.820
   H    97.500  68.780  19.630
   H    99.280  69.070  19.640
   H    101.990  67.700  22.990
   H    102.920  67.840  20.560
   H    102.770  69.500  20.630
   H    105.250  66.820  21.360
   H    104.240  66.960  22.890
   H    105.870  67.710  22.790
   H    106.300  69.500  20.870
   H    104.910  70.260  20.140
   H    105.350  68.630  19.740
   H    104.480  69.110  25.460
   H    102.690  69.300  25.680
   H    103.280  68.020  24.710
   H    102.860  71.580  25.200
   H    103.100  72.170  23.550
   H    104.490  71.710  24.590
   H    101.820  70.590  22.500
   H    101.130  69.710  23.860
   H    96.670  66.660  21.010
   H    97.560  66.330  22.470
   H    97.810  69.720  22.990
   H    97.770  68.630  24.420
   H    96.520  69.860  24.150
   H    93.580  69.620  20.330
   H    95.780  71.100  20.250
   H    96.250  70.330  18.750
   H    93.380  72.160  20.080
   H    94.650  73.230  20.030
   H    93.380  73.450  18.780
   H    96.040  72.990  17.690
   H    94.520  72.910  16.830
   H    95.740  71.700  16.610
   H    91.530  69.580  19.210
   H    91.040  69.760  17.530
   H    91.600  68.170  18.090
   H    94.280  69.550  15.940
   H    93.010  68.210  16.010
   H    92.650  69.870  15.570
   H    94.990  68.690  17.880
   H    93.850  67.660  18.760
   H    95.100  68.000  24.530
   H    96.210  66.600  24.260
   H    93.740  65.910  25.510
   H    93.510  64.570  24.470
   H    95.110  64.940  24.850
   H    95.550  64.100  20.460
   H    93.570  63.330  21.070
   H    94.150  62.270  22.440
   H    93.360  62.330  18.830
   H    92.370  61.220  19.740
   H    93.670  60.680  18.610
   H    94.360  59.190  20.690
   H    94.910  59.940  22.090
   H    93.160  60.070  21.570
   H    96.670  62.960  18.620
   H    97.920  61.710  18.510
   H    98.380  63.150  19.230
   H    97.520  60.270  21.810
   H    98.220  60.020  20.260
   H    98.890  61.230  21.450
   H    97.680  63.300  21.760
   H    96.770  62.230  22.620
   H    93.010  67.840  22.430
   H    92.890  67.970  24.090
   H    92.030  64.640  22.400
   H    91.750  65.900  21.180
   H    90.440  64.970  21.910
   H    88.890  65.470  26.240
   H    88.580  63.060  24.520
   H    87.600  64.590  24.450
   H    85.920  61.640  26.460
   H    87.210  61.410  25.240
   H    85.700  62.410  24.970
   H    86.550  65.400  26.620
   H    85.380  64.630  25.510
   H    85.330  64.220  27.120
   H    90.510  63.280  29.390
   H    89.760  64.730  29.000
   H    88.780  63.510  29.620
   H    89.580  61.000  26.610
   H    90.840  61.510  27.690
   H    89.410  61.040  28.440
   H    90.600  63.020  25.710
   H    91.020  64.270  26.680
   H    90.800  67.920  21.650
   H    89.490  66.980  22.250
   H    88.010  69.090  21.810
   H    89.630  69.710  21.190
   H    88.590  70.510  22.460
   H    86.780  68.700  26.180
   H    89.070  69.500  27.880
   H    88.720  67.890  27.490
   H    86.200  67.170  29.890
   H    87.550  66.590  29.000
   H    86.130  67.020  28.090
   H    88.060  70.220  30.050
   H    88.720  68.620  30.390
   H    87.260  68.840  31.010
   H    87.280  72.120  29.070
   H    85.540  72.110  29.470
   H    86.120  72.990  28.130
   H    84.790  70.270  26.110
   H    84.310  71.840  26.860
   H    83.950  70.280  27.640
   H    87.970  71.380  26.970
   H    86.880  71.370  25.800
   H    91.110  69.560  24.860
   H    91.820  69.700  23.300
   H    89.570  73.220  24.660
   H    88.710  71.820  24.280
   H    89.800  71.770  25.710
   H    90.550  73.540  20.170
   H    87.700  72.370  20.670
   H    89.130  71.550  19.980
   H    87.420  70.930  18.510
   H    86.730  72.190  17.380
   H    86.200  72.190  18.980
   H    89.500  73.360  16.870
   H    90.440  72.720  18.070
   H    89.470  71.650  17.290
   H    86.810  76.310  20.440
   H    88.150  77.440  20.290
   H    87.080  77.140  18.960
   H    90.380  76.670  19.230
   H    89.270  76.380  17.910
   H    90.400  75.130  18.410
   H    88.120  74.730  21.460
   H    89.570  75.520  21.520
   H    92.390  73.050  24.160
   H    92.090  72.170  25.530
   H    93.030  71.410  24.130
  