239
PTMA_CHAIN10_time14
 C    72.870  65.310  55.830
   C    72.910  66.190  54.560
   C    72.770  65.280  53.280
   C    74.340  66.780  54.620
   O    75.090  66.660  53.650
   O    74.780  67.400  55.710
   C    76.040  67.940  55.720
   C    76.080  69.240  54.990
   C    77.530  69.760  54.990
   C    78.210  69.400  53.630
   C    77.560  71.270  54.920
   N    78.370  69.370  56.140
   H    79.400  69.710  56.020
   C    77.940  68.530  57.250
   C    78.820  67.240  57.180
   C    78.220  69.370  58.470
   C    76.450  68.120  57.130
   C    71.890  67.280  54.750
   C    71.720  68.460  53.670
   C    73.020  69.350  53.510
   C    71.230  67.870  52.340
   O    71.660  68.220  51.190
   O    70.180  67.080  52.540
   C    69.520  66.430  51.460
   C    70.320  65.380  50.740
   C    69.580  64.730  49.620
   C    69.620  65.660  48.390
   C    70.340  63.330  49.240
   N    68.150  64.430  49.990
   H    67.810  63.420  49.800
   C    67.310  65.340  50.820
   C    66.560  66.440  50.070
   C    66.180  64.470  51.470
   C    68.210  65.790  52.010
   C    70.640  69.450  54.370
   C    69.720  70.560  53.590
   C    68.370  69.880  53.180
   C    70.510  71.110  52.400
   O    71.200  72.140  52.450
   O    69.960  70.630  51.270
   C    70.500  70.990  49.970
   C    70.040  72.350  49.540
   C    70.370  72.590  48.030
   C    71.300  73.820  47.810
   C    69.120  72.950  47.230
   N    71.120  71.490  47.370
   H    71.950  71.690  46.700
   C    70.740  70.080  47.730
   C    71.960  69.150  47.710
   C    69.810  69.540  46.540
   C    69.950  69.970  48.970
   C    69.530  71.690  54.650
   C    68.470  72.850  54.580
   C    68.410  73.380  53.170
   C    67.010  72.390  54.930
   O    66.670  71.280  55.280
   O    66.030  73.380  54.750
   C    64.660  72.950  54.980
   C    64.360  73.030  56.510
   C    63.000  72.630  56.950
   C    62.680  73.230  58.240
   C    62.740  71.100  56.940
   N    62.050  73.240  55.940
   H    61.060  73.480  56.320
   C    62.280  73.480  54.460
   C    61.900  72.300  53.610
   C    61.450  74.720  54.030
   C    63.710  73.880  54.290
   C    68.830  74.090  55.470
   C    69.080  74.110  56.980
   C    67.830  73.570  57.750
   C    70.320  73.270  57.410
   O    71.310  73.300  56.720
   O    70.170  72.520  58.600
   C    71.160  71.840  59.200
   C    71.770  72.550  60.410
   C    72.660  71.550  61.300
   C    74.010  72.180  61.560
   C    71.970  71.250  62.670
   N    72.890  70.310  60.530
   H    73.910  69.960  60.410
   C    71.760  69.520  59.910
   C    71.380  68.260  60.770
   C    72.270  68.920  58.600
   C    70.560  70.450  59.580
   C    69.190  75.590  57.510
   C    70.640  76.260  57.710
   C    70.260  77.710  58.170
   C    71.410  76.350  56.380
   O    72.650  76.150  56.340
   O    70.720  76.980  55.470
   C    71.350  77.390  54.250
   C    71.380  76.300  53.170
   C    71.940  76.930  51.850
   C    71.340  75.950  50.820
   C    73.480  76.870  51.630
   N    71.460  78.390  51.550
   O    71.270  78.700  50.360
   C    71.140  79.380  52.670
   C    70.030  80.270  52.200
   C    72.390  80.190  53.070
   C    70.540  78.640  53.810
   C    71.490  75.730  58.930
   H    72.980  65.750  56.820
   H    71.970  64.690  55.870
   H    73.610  64.510  55.730
   H    73.560  64.540  53.410
   H    73.090  65.810  52.380
   H    71.790  64.800  53.340
   H    76.850  67.370  55.250
   H    75.840  69.170  53.940
   H    75.430  70.030  55.360
   H    79.280  69.530  53.780
   H    77.850  69.980  52.780
   H    78.010  68.370  53.330
   H    77.100  71.620  54.000
   H    78.510  71.800  54.960
   H    76.880  71.810  55.570
   H    79.840  67.630  57.210
   H    78.600  66.510  57.960
   H    78.800  66.770  56.190
   H    77.370  70.030  58.660
   H    79.080  70.010  58.250
   H    78.360  68.680  59.300
   H    75.880  68.860  57.700
   H    76.320  67.220  57.730
   H    70.950  66.790  55.010
   H    72.170  67.840  55.640
   H    72.790  70.220  52.900
   H    73.760  68.760  52.970
   H    73.410  69.720  54.450
   H    69.250  67.230  50.770
   H    71.250  65.770  50.320
   H    70.560  64.590  51.450
   H    68.980  65.160  47.670
   H    69.290  66.680  48.570
   H    70.580  65.690  47.860
   H    69.760  62.770  48.510
   H    70.420  62.640  50.080
   H    71.350  63.540  48.910
   H    66.340  67.240  50.780
   H    67.130  66.650  49.170
   H    65.560  66.100  49.800
   H    65.570  63.800  50.860
   H    66.560  63.700  52.140
   H    65.480  65.040  52.080
   H    68.450  65.060  52.790
   H    67.590  66.520  52.530
   H    71.200  70.080  55.050
   H    69.960  68.770  54.890
   H    68.460  69.090  52.430
   H    67.750  69.460  53.970
   H    67.760  70.590  52.620
   H    71.590  70.920  50.020
   H    70.490  73.160  50.110
   H    68.980  72.590  49.640
   H    70.640  74.680  47.920
   H    71.820  73.850  46.850
   H    72.000  73.870  48.650
   H    68.590  73.800  47.650
   H    69.390  73.170  46.190
   H    68.300  72.240  47.100
   H    72.190  69.050  46.650
   H    71.750  68.150  48.090
   H    72.830  69.440  48.290
   H    68.890  70.120  46.560
   H    70.250  69.620  45.540
   H    69.680  68.500  46.840
   H    69.980  68.970  49.390
   H    68.900  70.250  48.830
   H    70.470  72.200  54.850
   H    69.330  71.100  55.540
   H    69.380  73.650  52.760
   H    67.790  74.280  53.210
   H    67.880  72.810  52.410
   H    64.430  71.960  54.580
   H    64.670  73.990  56.930
   H    65.080  72.450  57.080
   H    61.740  72.900  58.670
   H    62.710  74.300  58.010
   H    63.430  72.950  58.980
   H    63.650  70.630  57.320
   H    61.870  70.810  57.530
   H    62.630  70.710  55.920
   H    62.580  71.450  53.710
   H    61.060  71.850  54.130
   H    61.640  72.630  52.600
   H    61.470  75.030  52.980
   H    60.370  74.630  54.100
   H    61.650  75.610  54.620
   H    63.890  74.890  54.660
   H    63.880  73.900  53.210
   H    69.650  74.660  55.030
   H    68.050  74.830  55.260
   H    66.900  74.060  57.480
   H    67.980  73.530  58.830
   H    67.680  72.530  57.490
   H    72.000  71.710  58.520
   H    70.990  73.060  60.980
   H    72.360  73.380  60.020
   H    74.600  72.310  60.660
   H    74.460  71.620  62.380
   H    73.980  73.220  61.880
   H    72.610  70.840  63.450
   H    71.060  70.680  62.500
   H    71.690  72.260  62.980
   H    72.260  67.620  60.830
   H    70.500  67.820  60.300
   H    71.180  68.580  61.800
   H    71.600  68.150  58.210
   H    73.270  68.480  58.610
   H    72.230  69.610  57.760
   H    69.920  70.610  60.450
   H    69.950  70.020  58.790
   H    68.630  76.270  56.870
   H    68.750  75.670  58.510
   H    71.190  78.260  58.320
   H    69.660  78.280  57.460
   H    69.880  77.580  59.180
   H    72.410  77.620  54.400
   H    70.340  75.980  53.070
   H    71.950  75.460  53.560
   H    71.730  76.210  49.830
   H    70.250  75.940  50.820
   H    71.550  74.900  50.950
   H    73.690  77.270  50.630
   H    74.100  77.620  52.130
   H    73.910  75.890  51.820
   H    70.380  81.010  51.470
   H    69.270  79.650  51.730
   H    69.690  80.840  53.070
   H    73.180  79.470  52.860
   H    72.410  80.520  54.110
   H    72.560  81.060  52.430
   H    69.500  78.330  53.650
   H    70.480  79.370  54.620
   H    72.160  76.380  59.490
   H    70.830  75.230  59.640
   H    72.260  75.010  58.670
  