239
PTMA_CHAIN1_frame5
 C    5.950  24.860  63.510
   C    5.070  23.620  63.070
   C    6.110  22.420  63.220
   C    4.640  23.600  61.620
   O    4.330  22.530  61.100
   O    5.220  24.560  60.920
   C    4.630  24.830  59.600
   C    3.810  26.080  59.740
   C    3.150  26.510  58.410
   C    2.010  25.550  58.230
   C    2.620  27.920  58.620
   N    4.050  26.400  57.160
   O    3.950  27.260  56.240
   C    5.350  25.580  57.240
   C    5.030  24.260  56.480
   C    6.470  26.370  56.530
   C    5.790  25.300  58.690
   C    3.880  23.470  64.070
   C    2.510  24.290  63.890
   C    2.810  25.740  63.410
   C    1.510  23.430  62.940
   O    1.140  23.920  61.850
   O    1.300  22.220  63.370
   C    0.450  21.320  62.650
   C    1.180  20.650  61.470
   C    0.380  19.720  60.640
   C    -0.580  20.510  59.720
   C    1.310  18.820  59.690
   N    -0.410  18.740  61.510
   O    -0.770  17.670  61.020
   C    -0.870  19.150  62.930
   C    -2.330  19.670  62.790
   C    -1.050  17.850  63.770
   C    0.010  20.230  63.610
   C    1.940  24.340  65.310
   C    0.510  24.900  65.810
   C    0.270  26.350  65.330
   C    0.720  24.910  67.360
   O    1.460  24.110  67.910
   O    -0.030  25.840  67.960
   C    0.190  26.110  69.270
   C    -0.700  25.280  70.180
   C    -0.430  25.500  71.680
   C    0.900  24.810  71.900
   C    -1.520  24.760  72.470
   N    -0.350  26.910  72.080
   O    -0.250  27.230  73.280
   C    0.150  28.000  71.080
   C    1.660  28.250  71.200
   C    -0.590  29.310  71.360
   C    -0.260  27.580  69.600
   C    -0.670  23.770  65.540
   C    -2.080  23.640  66.390
   C    -1.770  22.850  67.650
   C    -2.660  25.030  66.830
   O    -3.160  25.160  67.930
   O    -2.790  25.950  65.830
   C    -3.520  27.140  66.050
   C    -2.700  28.210  66.800
   C    -3.500  29.490  67.210
   C    -2.580  30.800  67.350
   C    -4.270  29.300  68.520
   N    -4.530  29.900  66.130
   O    -5.030  30.990  66.320
   C    -5.050  28.910  65.110
   C    -6.470  28.370  65.570
   C    -5.420  29.660  63.770
   C    -4.000  27.860  64.800
   C    -3.080  22.620  65.640
   C    -4.490  23.120  65.140
   C    -5.390  23.550  66.240
   C    -4.380  24.060  63.900
   O    -5.290  24.890  63.730
   O    -3.320  23.890  63.150
   C    -3.120  24.650  62.030
   C    -2.010  25.670  62.290
   C    -1.860  26.710  61.070
   C    -2.990  27.770  61.140
   C    -0.460  27.390  61.260
   N    -1.910  26.050  59.720
   O    -1.750  26.710  58.670
   C    -2.410  24.610  59.580
   C    -1.550  23.830  58.650
   C    -3.790  24.690  58.980
   C    -2.580  23.800  60.870
   C    -5.080  21.790  64.580
   C    -6.390  21.510  63.740
   C    -6.250  20.050  63.500
   C    -6.540  22.290  62.360
   O    -5.750  22.070  61.450
   O    -7.660  22.980  62.140
   C    -7.800  23.810  61.040
   C    -8.710  23.170  59.990
   C    -9.030  23.830  58.680
   C    -10.260  23.180  58.030
   C    -7.850  23.730  57.750
   N    -9.300  25.330  58.920
   O    -10.250  25.810  58.290
   C    -8.800  26.070  60.190
   C    -9.940  27.050  60.700
   C    -7.560  26.940  59.850
   C    -8.420  25.150  61.420
   C    -7.710  21.660  64.650
   H    5.470  25.770  63.140
   H    6.190  24.910  64.570
   H    6.930  24.880  63.030
   H    5.750  21.490  62.770
   H    6.330  22.300  64.280
   H    7.060  22.640  62.720
   H    4.110  24.000  59.120
   H    2.970  26.000  60.430
   H    4.440  26.880  60.120
   H    1.390  25.580  59.130
   H    2.420  24.560  58.010
   H    1.330  25.770  57.400
   H    2.320  28.500  57.750
   H    3.470  28.510  58.970
   H    1.850  28.070  59.380
   H    4.400  24.370  55.600
   H    5.950  23.740  56.200
   H    4.510  23.580  57.150
   H    6.120  26.890  55.650
   H    7.170  25.560  56.300
   H    7.040  27.080  57.120
   H    6.340  26.150  59.080
   H    6.600  24.570  58.730
   H    3.690  22.400  64.130
   H    4.220  23.670  65.090
   H    3.380  25.760  62.490
   H    3.420  26.400  64.030
   H    1.830  26.170  63.180
   H    -0.450  21.840  62.320
   H    1.610  21.540  61.020
   H    2.020  20.110  61.900
   H    0.050  21.230  59.190
   H    -1.080  19.850  59.020
   H    -1.410  21.010  60.230
   H    0.740  18.190  59.010
   H    1.970  18.200  60.300
   H    1.970  19.460  59.110
   H    -2.900  19.630  63.720
   H    -2.270  20.660  62.340
   H    -2.870  19.020  62.110
   H    -1.310  18.120  64.790
   H    -1.910  17.390  63.290
   H    -0.140  17.270  63.660
   H    0.840  19.830  64.180
   H    -0.570  20.810  64.330
   H    2.680  24.920  65.860
   H    2.080  23.340  65.720
   H    1.200  26.920  65.420
   H    -0.020  26.520  64.300
   H    -0.520  26.820  65.930
   H    1.260  26.000  69.420
   H    -0.550  24.260  69.840
   H    -1.730  25.530  69.920
   H    1.350  24.520  70.950
   H    0.850  23.970  72.590
   H    1.700  25.450  72.290
   H    -2.520  25.140  72.290
   H    -1.540  23.700  72.220
   H    -1.440  24.900  73.550
   H    1.880  28.680  72.180
   H    2.110  28.900  70.450
   H    2.150  27.280  71.220
   H    -1.660  29.280  71.190
   H    -0.330  29.610  72.380
   H    -0.200  30.090  70.700
   H    0.320  28.270  68.990
   H    -1.300  27.870  69.420
   H    -0.190  22.820  65.760
   H    -0.960  23.890  64.500
   H    -1.590  21.810  67.350
   H    -2.520  22.940  68.430
   H    -0.780  23.060  68.060
   H    -4.400  26.900  66.640
   H    -1.830  28.580  66.260
   H    -2.370  27.760  67.730
   H    -1.510  30.680  67.460
   H    -3.000  31.520  68.050
   H    -2.640  31.560  66.570
   H    -4.910  28.430  68.450
   H    -3.590  29.130  69.350
   H    -4.820  30.170  68.860
   H    -7.270  29.110  65.580
   H    -6.750  27.630  64.830
   H    -6.250  27.870  66.510
   H    -5.550  28.910  62.980
   H    -6.340  30.220  63.930
   H    -4.680  30.400  63.450
   H    -3.160  28.250  64.220
   H    -4.310  27.100  64.080
   H    -2.530  22.180  64.810
   H    -3.270  21.730  66.240
   H    -6.240  22.930  66.530
   H    -5.960  24.460  66.060
   H    -4.890  23.570  67.210
   H    -4.030  25.140  61.710
   H    -1.060  25.220  62.570
   H    -2.280  26.290  63.140
   H    -3.010  28.360  60.230
   H    -2.600  28.320  62.000
   H    -4.010  27.480  61.380
   H    0.260  26.570  61.110
   H    -0.250  27.740  62.260
   H    -0.260  28.130  60.490
   H    -1.460  24.380  57.710
   H    -1.960  22.870  58.340
   H    -0.620  23.510  59.120
   H    -3.800  25.050  57.950
   H    -4.310  25.450  59.560
   H    -4.420  23.800  59.080
   H    -1.690  23.250  61.180
   H    -3.280  23.010  60.610
   H    -4.270  21.450  63.930
   H    -5.000  21.020  65.350
   H    -7.090  19.710  62.900
   H    -5.280  19.900  63.030
   H    -6.300  19.590  64.490
   H    -6.880  24.150  60.580
   H    -9.630  22.810  60.470
   H    -8.150  22.290  59.670
   H    -11.050  22.920  58.720
   H    -9.950  22.180  57.720
   H    -10.690  23.760  57.220
   H    -7.930  24.370  56.860
   H    -6.930  24.000  58.270
   H    -7.590  22.750  57.360
   H    -10.850  26.450  60.650
   H    -9.860  27.270  61.770
   H    -9.830  27.950  60.100
   H    -6.680  26.310  60.000
   H    -7.510  27.830  60.470
   H    -7.610  27.470  58.900
   H    -9.340  24.830  61.920
   H    -7.850  25.780  62.080
   H    -7.960  22.720  64.760
   H    -8.590  21.310  64.110
   H    -7.820  21.090  65.570
  