239
PTMA_CHAIN3_time16
 C    90.450  48.140  57.530
   C    91.030  49.490  56.990
   C    91.300  49.280  55.440
   C    92.260  49.790  57.830
   O    93.360  49.960  57.360
   O    92.010  50.010  59.150
   C    93.050  50.300  60.110
   C    92.310  50.740  61.340
   C    93.240  51.230  62.410
   C    93.810  52.640  62.220
   C    92.530  51.250  63.800
   N    94.440  50.310  62.540
   H    94.870  50.160  63.540
   C    94.970  49.490  61.380
   C    96.070  50.270  60.630
   C    95.710  48.240  61.930
   C    93.850  49.130  60.410
   C    89.800  50.510  57.280
   C    90.000  52.080  56.980
   C    90.920  52.690  58.100
   C    90.690  52.280  55.570
   O    91.770  52.850  55.410
   O    89.810  52.080  54.600
   C    90.150  52.240  53.210
   C    90.810  51.090  52.620
   C    91.060  51.240  51.090
   C    92.580  51.380  50.870
   C    90.470  50.110  50.280
   N    90.470  52.510  50.520
   H    91.000  53.050  49.730
   C    89.300  53.180  51.160
   C    89.700  54.660  51.370
   C    88.070  53.120  50.160
   C    88.880  52.530  52.530
   C    88.620  52.680  57.040
   C    88.200  54.250  56.990
   C    88.220  54.810  58.510
   C    86.750  54.310  56.360
   O    86.530  53.750  55.290
   O    85.850  55.000  57.060
   C    84.610  55.410  56.530
   C    84.360  56.890  56.880
   C    83.110  57.330  56.150
   C    83.450  58.040  54.870
   C    82.280  58.330  57.000
   N    82.250  56.230  55.710
   H    81.580  56.420  54.870
   C    82.140  54.930  56.460
   C    81.770  53.860  55.400
   C    81.010  55.050  57.450
   C    83.490  54.590  57.180
   C    89.120  54.940  55.940
   C    89.180  56.500  55.570
   C    87.750  56.950  55.090
   C    89.570  57.290  56.890
   O    88.980  58.310  57.270
   O    90.540  56.620  57.520
   C    91.310  57.360  58.550
   C    90.820  56.950  59.890
   C    91.650  57.600  61.010
   C    91.610  56.770  62.180
   C    91.220  59.080  61.330
   N    93.060  57.720  60.630
   H    93.700  57.940  61.490
   C    93.660  57.490  59.340
   C    94.180  58.840  58.840
   C    95.010  56.640  59.580
   C    92.770  56.880  58.380
   C    90.360  56.680  54.520
   C    90.910  58.070  53.890
   C    89.710  58.720  53.140
   C    91.580  59.090  54.870
   O    92.190  58.650  55.830
   O    91.450  60.400  54.670
   C    92.000  61.300  55.630
   C    93.260  61.920  55.040
   C    94.060  62.680  56.070
   C    94.780  61.670  56.960
   C    95.140  63.670  55.450
   N    93.120  63.500  56.870
   H    93.530  64.320  57.470
   C    91.670  63.340  57.010
   C    91.100  64.720  56.700
   C    91.390  62.920  58.490
   C    91.060  62.480  55.910
   C    91.970  57.770  52.740
   C    93.410  57.260  52.930
   C    93.980  57.010  51.480
   C    93.530  55.840  53.580
   O    92.570  55.110  53.400
   O    94.790  55.500  53.990
   C    94.930  54.280  54.630
   C    95.650  53.350  53.670
   C    95.960  51.880  54.160
   C    97.020  51.230  53.300
   C    94.770  50.990  53.980
   N    96.360  51.960  55.550
   O    96.940  50.990  56.010
   C    96.100  53.100  56.530
   C    97.220  53.190  57.580
   C    94.800  52.750  57.320
   C    95.790  54.430  55.890
   C    94.370  58.300  53.550
   H    89.560  47.770  57.020
   H    91.250  47.400  57.520
   H    90.140  48.030  58.580
   H    90.450  49.550  54.810
   H    91.550  48.270  55.120
   H    92.140  49.920  55.180
   H    93.610  51.140  59.700
   H    91.510  51.460  61.180
   H    91.760  49.890  61.730
   H    94.590  52.820  62.970
   H    93.060  53.420  62.370
   H    94.180  52.970  61.250
   H    93.240  51.190  64.620
   H    91.920  50.360  63.930
   H    91.940  52.150  63.960
   H    97.090  50.010  60.930
   H    96.190  49.910  59.610
   H    96.010  51.350  60.580
   H    96.350  48.530  62.770
   H    96.270  47.870  61.070
   H    95.140  47.380  62.260
   H    93.290  48.300  60.840
   H    94.350  48.680  59.550
   H    88.980  50.220  56.630
   H    89.380  50.350  58.280
   H    91.960  52.400  58.010
   H    90.480  52.470  59.080
   H    91.000  53.780  58.050
   H    90.810  53.100  53.290
   H    91.750  50.890  53.130
   H    90.090  50.300  52.810
   H    93.090  50.470  51.190
   H    92.850  51.520  49.830
   H    92.980  52.210  51.450
   H    89.480  49.850  50.650
   H    91.040  49.180  50.350
   H    90.340  50.440  49.250
   H    89.900  55.100  50.390
   H    88.800  55.050  51.850
   H    90.570  54.720  52.010
   H    88.510  53.440  49.220
   H    87.580  52.140  50.070
   H    87.440  53.990  50.370
   H    88.150  51.720  52.490
   H    88.450  53.330  53.130
   H    88.160  52.360  57.970
   H    88.170  52.100  56.240
   H    87.970  55.860  58.610
   H    87.550  54.230  59.150
   H    89.180  54.690  59.000
   H    84.770  55.310  55.460
   H    85.210  57.500  56.610
   H    84.170  56.960  57.960
   H    82.630  58.450  54.290
   H    83.840  57.260  54.210
   H    84.290  58.740  54.880
   H    81.330  58.450  56.480
   H    82.100  58.040  58.030
   H    82.770  59.300  56.930
   H    81.670  52.820  55.710
   H    82.410  53.810  54.520
   H    80.800  54.110  54.950
   H    80.090  55.450  57.000
   H    80.850  54.090  57.950
   H    81.300  55.770  58.210
   H    83.660  53.510  57.110
   H    83.320  54.760  58.240
   H    88.900  54.450  55.000
   H    90.180  54.700  56.100
   H    87.850  57.980  54.760
   H    86.910  56.850  55.780
   H    87.390  56.300  54.290
   H    91.170  58.430  58.460
   H    90.870  55.860  59.930
   H    89.760  57.150  60.020
   H    92.280  57.240  62.910
   H    91.880  55.730  62.020
   H    90.570  56.770  62.500
   H    91.790  59.400  62.200
   H    91.300  59.760  60.490
   H    90.190  59.160  61.670
   H    93.510  59.670  59.070
   H    95.150  59.100  59.250
   H    94.300  58.950  57.760
   H    95.620  56.510  58.680
   H    95.600  56.920  60.450
   H    94.750  55.630  59.910
   H    92.820  55.810  58.580
   H    93.190  57.140  57.400
   H    91.170  56.260  55.120
   H    90.240  56.020  53.660
   H    89.140  59.230  53.910
   H    89.240  58.050  52.410
   H    90.090  59.600  52.610
   H    92.200  60.770  56.570
   H    93.080  62.620  54.210
   H    93.950  61.220  54.580
   H    95.490  62.070  57.680
   H    95.480  61.030  56.430
   H    94.040  61.200  57.610
   H    94.600  64.480  54.960
   H    95.830  63.280  54.690
   H    95.860  64.050  56.180
   H    91.460  65.460  57.410
   H    90.020  64.640  56.840
   H    91.260  65.150  55.710
   H    90.330  62.820  58.760
   H    91.680  63.640  59.260
   H    92.040  62.080  58.730
   H    90.840  63.040  55.000
   H    90.210  61.890  56.270
   H    91.430  57.100  52.060
   H    91.960  58.740  52.230
   H    94.120  57.980  51.000
   H    95.020  56.690  51.610
   H    93.380  56.360  50.850
   H    93.930  53.900  54.830
   H    96.530  53.850  53.250
   H    94.950  53.260  52.840
   H    96.920  51.320  52.220
   H    97.230  50.210  53.630
   H    97.960  51.740  53.520
   H    95.120  50.000  54.280
   H    93.920  51.290  54.590
   H    94.540  51.030  52.910
   H    98.120  53.580  57.110
   H    96.920  53.940  58.320
   H    97.470  52.290  58.140
   H    93.980  52.520  56.650
   H    94.440  53.580  57.930
   H    94.980  51.880  57.960
   H    96.740  54.830  55.530
   H    95.430  55.140  56.640
   H    95.430  58.200  53.330
   H    94.040  59.320  53.360
   H    94.320  58.320  54.640
  