239
PTMA_CHAIN5_time0point5
 C    90.560  63.920  70.310
   C    91.660  64.700  69.590
   C    90.880  65.850  68.810
   C    92.210  63.750  68.490
   O    91.450  63.140  67.760
   O    93.570  63.580  68.500
   C    94.220  62.750  67.530
   C    94.250  63.400  66.170
   C    94.860  62.490  65.110
   C    93.830  61.860  64.170
   C    95.820  63.260  64.280
   N    95.610  61.380  65.750
   H    95.660  60.460  65.170
   C    96.190  61.390  67.120
   C    95.960  60.020  67.810
   C    97.710  61.460  66.860
   C    95.670  62.530  67.950
   C    92.730  65.270  70.620
   C    93.620  66.530  70.390
   C    94.300  66.520  68.980
   C    92.670  67.780  70.550
   O    92.790  68.790  69.880
   O    92.010  67.640  71.720
   C    91.170  68.710  72.300
   C    89.690  68.350  72.050
   C    88.680  69.040  73.000
   C    87.720  69.870  72.170
   C    87.840  68.070  73.810
   N    89.380  70.030  73.820
   H    88.730  70.730  74.340
   C    90.690  69.730  74.580
   C    91.430  71.020  74.540
   C    90.580  69.280  76.090
   C    91.350  68.630  73.800
   C    94.710  66.510  71.500
   C    95.880  67.590  71.740
   C    97.060  67.230  70.730
   C    96.170  67.370  73.240
   O    95.380  67.780  74.120
   O    97.330  66.760  73.520
   C    97.500  66.270  74.830
   C    98.010  67.360  75.810
   C    98.010  66.840  77.170
   C    96.580  66.840  77.770
   C    99.010  67.650  78.000
   N    98.410  65.370  77.170
   H    98.230  64.820  78.100
   C    98.920  64.630  76.010
   C    98.290  63.250  76.010
   C    100.460  64.450  76.120
   C    98.560  65.300  74.690
   C    95.430  69.100  71.500
   C    96.100  70.480  71.930
   C    96.010  70.530  73.530
   C    97.560  70.830  71.640
   O    97.960  71.940  71.320
   O    98.480  69.860  71.980
   C    99.910  69.950  72.040
   C    100.380  68.790  72.810
   C    101.590  68.020  72.370
   C    101.070  66.800  71.560
   C    102.260  67.390  73.660
   N    102.560  68.840  71.600
   H    103.410  68.250  71.240
   C    102.160  70.090  70.930
   C    102.600  71.270  71.740
   C    102.950  70.020  69.590
   C    100.690  70.130  70.790
   C    95.130  71.660  71.550
   C    95.060  72.590  70.190
   C    95.310  74.090  70.460
   C    96.090  72.150  69.030
   O    96.390  72.940  68.180
   O    96.490  70.890  69.000
   C    97.240  70.420  67.860
   C    98.500  69.840  68.330
   C    99.330  69.300  67.220
   C    100.340  70.410  66.830
   C    100.080  68.030  67.580
   N    98.510  68.980  66.010
   H    98.920  69.390  65.080
   C    97.000  68.780  66.060
   C    96.760  67.290  65.870
   C    96.200  69.500  64.970
   C    96.460  69.290  67.360
   C    93.650  72.400  69.580
   C    92.310  73.070  70.160
   C    91.990  72.840  71.600
   C    91.210  72.570  69.210
   O    91.480  71.680  68.350
   O    90.010  73.160  69.400
   C    88.890  72.930  68.520
   C    88.050  71.840  69.120
   C    86.730  71.530  68.390
   C    85.750  70.900  69.420
   C    86.970  70.440  67.240
   N    86.170  72.770  67.860
   O    85.000  72.770  67.370
   C    86.890  74.030  67.560
   C    85.980  75.180  67.850
   C    87.300  74.140  66.060
   C    88.180  74.230  68.490
   C    92.360  74.620  69.970
   H    90.220  64.660  71.040
   H    89.700  63.530  69.770
   H    90.990  63.040  70.780
   H    90.440  66.530  69.530
   H    90.170  65.400  68.120
   H    91.540  66.430  68.170
   H    93.710  61.790  67.460
   H    93.280  63.680  65.770
   H    94.760  64.360  66.270
   H    93.240  61.080  64.650
   H    94.280  61.440  63.280
   H    93.050  62.530  63.800
   H    95.520  64.280  64.020
   H    96.090  62.710  63.380
   H    96.830  63.340  64.670
   H    95.970  59.240  67.040
   H    96.670  59.860  68.620
   H    94.960  59.940  68.220
   H    97.940  62.330  66.240
   H    98.150  60.620  66.320
   H    98.300  61.520  67.780
   H    96.250  63.430  67.770
   H    95.810  62.340  69.020
   H    92.290  65.270  71.620
   H    93.470  64.470  70.660
   H    94.500  67.520  68.610
   H    93.620  66.200  68.190
   H    95.210  65.920  68.990
   H    91.470  69.700  71.960
   H    89.340  68.410  71.020
   H    89.640  67.270  72.230
   H    88.210  70.550  71.480
   H    87.140  69.170  71.550
   H    86.980  70.400  72.770
   H    87.270  68.540  74.620
   H    88.490  67.250  74.120
   H    87.070  67.570  73.220
   H    92.500  70.810  74.470
   H    91.070  71.620  73.710
   H    91.250  71.600  75.440
   H    90.210  70.040  76.780
   H    89.840  68.480  76.100
   H    91.580  68.980  76.400
   H    90.920  67.670  74.060
   H    92.370  68.520  74.170
   H    95.150  65.520  71.410
   H    94.160  66.310  72.420
   H    97.360  66.190  70.800
   H    96.740  67.340  69.690
   H    97.950  67.870  70.790
   H    96.630  65.720  75.180
   H    97.280  68.150  75.650
   H    98.990  67.720  75.500
   H    96.570  66.230  78.680
   H    95.740  66.430  77.210
   H    96.270  67.880  77.860
   H    100.010  67.660  77.560
   H    98.710  68.700  77.940
   H    99.040  67.320  79.030
   H    98.040  62.800  76.980
   H    98.870  62.560  75.400
   H    97.300  63.330  75.560
   H    100.970  65.420  76.190
   H    100.840  63.880  76.960
   H    100.790  63.880  75.250
   H    98.350  64.670  73.820
   H    99.450  65.840  74.380
   H    94.420  69.120  71.920
   H    95.270  69.200  70.430
   H    94.960  70.430  73.800
   H    96.320  71.500  73.930
   H    96.690  69.830  74.030
   H    100.090  70.770  72.740
   H    99.610  68.040  72.970
   H    100.640  69.130  73.810
   H    100.480  66.190  72.240
   H    101.900  66.160  71.270
   H    100.420  67.050  70.720
   H    102.750  66.500  73.280
   H    103.030  68.010  74.120
   H    101.460  67.110  74.350
   H    102.460  72.220  71.230
   H    102.140  71.350  72.730
   H    103.660  71.070  71.860
   H    102.650  69.190  68.940
   H    102.850  70.950  69.040
   H    104.030  69.960  69.700
   H    100.420  69.340  70.080
   H    100.400  71.090  70.360
   H    94.120  71.310  71.740
   H    95.300  72.470  72.270
   H    94.780  74.590  71.270
   H    95.220  74.650  69.530
   H    96.370  74.260  70.660
   H    97.300  71.130  67.030
   H    98.390  69.120  69.140
   H    98.920  70.750  68.760
   H    100.870  70.750  67.720
   H    99.850  71.280  66.390
   H    101.080  70.140  66.070
   H    100.860  68.100  68.340
   H    100.630  67.690  66.700
   H    99.410  67.220  67.880
   H    97.100  67.020  64.870
   H    95.700  67.030  65.850
   H    97.330  66.690  66.590
   H    96.030  70.520  65.310
   H    95.210  69.050  64.840
   H    96.650  69.440  63.980
   H    96.400  68.400  68.000
   H    95.400  69.520  67.230
   H    93.750  72.650  68.530
   H    93.500  71.320  69.550
   H    92.710  73.180  72.350
   H    91.020  73.260  71.850
   H    91.950  71.760  71.760
   H    89.260  72.540  67.570
   H    87.780  72.210  70.110
   H    88.640  70.920  69.170
   H    85.550  71.570  70.260
   H    86.180  70.040  69.930
   H    84.730  70.730  69.070
   H    86.080  70.400  66.610
   H    87.880  70.650  66.680
   H    87.240  69.430  67.530
   H    86.420  76.170  68.020
   H    85.230  75.410  67.090
   H    85.470  75.060  68.810
   H    87.720  75.090  65.710
   H    86.450  73.760  65.490
   H    88.080  73.450  65.730
   H    87.810  74.640  69.430
   H    88.800  75.010  68.050
   H    92.890  74.890  69.050
   H    91.340  74.990  69.880
   H    92.860  75.210  70.730
  