239
PTMA_CHAIN9_time0
 C    96.130  46.700  67.940
   C    94.800  47.450  68.210
   C    95.070  48.380  69.400
   C    93.800  46.360  68.640
   O    93.380  46.210  69.780
   O    93.560  45.490  67.620
   C    93.020  44.190  67.970
   C    91.510  44.210  68.140
   C    90.990  42.810  68.580
   C    91.070  42.750  70.130
   C    89.490  42.730  68.190
   N    91.880  41.720  68.060
   O    91.220  40.440  68.100
   C    92.540  41.940  66.750
   C    93.540  40.790  66.430
   C    91.570  42.050  65.550
   C    93.410  43.240  66.830
   C    94.400  48.190  66.900
   C    93.410  49.420  66.880
   C    92.110  49.030  67.590
   C    94.090  50.640  67.550
   O    93.570  51.340  68.410
   O    95.330  50.860  67.020
   C    96.030  52.090  67.330
   C    97.170  51.840  68.320
   C    98.580  51.720  67.680
   C    99.580  51.560  68.860
   C    98.680  50.400  66.880
   N    98.880  52.820  66.710
   O    99.930  53.690  67.160
   C    97.740  53.610  66.170
   C    97.330  54.860  66.990
   C    98.130  54.080  64.740
   C    96.500  52.690  66.010
   C    93.180  49.790  65.370
   C    91.970  50.660  64.770
   C    90.800  49.690  64.530
   C    92.610  51.160  63.450
   O    93.500  52.000  63.440
   O    92.180  50.480  62.350
   C    92.940  50.730  61.130
   C    92.570  52.060  60.480
   C    93.370  52.320  59.180
   C    94.820  52.720  59.570
   C    92.710  53.560  58.520
   N    93.250  51.160  58.260
   O    94.060  51.340  57.080
   C    93.390  49.780  58.790
   C    94.850  49.290  59.010
   C    92.720  48.790  57.800
   C    92.610  49.620  60.130
   C    91.510  51.870  65.690
   C    90.810  53.200  65.240
   C    91.660  53.960  64.190
   C    89.420  53.200  64.580
   O    88.680  54.180  64.620
   O    89.190  52.110  63.800
   C    88.080  52.230  62.860
   C    88.380  51.440  61.590
   C    87.430  50.260  61.270
   C    87.770  49.050  62.170
   C    87.790  49.780  59.830
   N    85.990  50.570  61.500
   O    85.230  50.690  60.290
   C    85.640  51.640  62.470
   C    85.330  53.030  61.830
   C    84.370  51.180  63.230
   C    86.760  51.830  63.520
   C    90.760  54.210  66.470
   C    89.970  54.000  67.810
   C    89.570  55.430  68.290
   C    88.600  53.300  67.630
   O    87.580  53.890  67.270
   O    88.610  51.990  68.010
   C    87.360  51.510  68.550
   C    86.470  50.870  67.500
   C    85.080  50.520  68.110
   C    84.170  51.770  67.940
   C    84.460  49.390  67.260
   N    85.200  50.270  69.580
   O    84.020  49.610  70.100
   C    86.450  49.630  70.070
   C    86.670  48.180  69.580
   C    86.480  49.600  71.630
   C    87.680  50.490  69.640
   C    90.800  53.290  68.960
   C    91.870  54.010  69.870
   C    92.970  54.680  69.040
   C    92.460  52.960  70.850
   O    91.790  52.070  71.370
   O    93.740  53.260  71.200
   C    94.300  52.640  72.390
   C    95.780  52.380  72.130
   C    96.550  51.930  73.410
   C    98.050  52.150  73.090
   C    96.330  50.410  73.590
   N    96.030  52.580  74.640
   O    97.040  52.670  75.670
   C    95.280  53.840  74.500
   C    96.110  55.040  73.970
   C    94.680  54.290  75.860
   C    94.060  53.580  73.580
   C    91.250  55.050  70.830
   H    96.940  47.390  67.730
   H    96.420  46.080  68.790
   H    96.040  46.040  67.080
   H    95.840  49.110  69.160
   H    95.430  47.820  70.270
   H    94.180  48.920  69.730
   H    93.510  43.850  68.890
   H    91.220  44.980  68.860
   H    91.060  44.520  67.190
   H    92.100  42.800  70.490
   H    90.630  41.830  70.520
   H    90.520  43.580  70.580
   H    88.950  43.600  68.560
   H    88.990  41.850  68.610
   H    89.350  42.700  67.110
   H    93.020  39.860  66.200
   H    94.150  41.030  65.560
   H    94.220  40.610  67.270
   H    90.940  42.940  65.600
   H    90.920  41.180  65.460
   H    92.130  42.120  64.620
   H    93.350  43.780  65.880
   H    94.470  43.010  66.950
   H    95.320  48.510  66.410
   H    93.980  47.450  66.220
   H    91.390  49.850  67.630
   H    92.270  48.750  68.630
   H    91.630  48.180  67.090
   H    95.330  52.790  67.800
   H    97.190  52.670  69.030
   H    96.960  50.950  68.920
   H    99.570  52.420  69.530
   H    99.330  50.690  69.460
   H    100.600  51.410  68.510
   H    99.690  50.260  66.480
   H    97.990  50.350  66.040
   H    98.460  49.540  67.520
   H    96.420  55.300  66.580
   H    97.130  54.630  68.040
   H    98.090  55.640  66.960
   H    98.940  54.800  64.770
   H    98.440  53.240  64.120
   H    97.280  54.560  64.250
   H    96.710  51.900  65.290
   H    95.670  53.240  65.560
   H    93.170  48.860  64.800
   H    94.110  50.250  65.030
   H    90.240  49.490  65.450
   H    90.100  50.070  63.790
   H    91.140  48.730  64.140
   H    94.000  50.690  61.380
   H    92.710  52.880  61.180
   H    91.500  52.060  60.270
   H    95.420  53.000  58.700
   H    95.350  51.930  60.100
   H    94.810  53.580  60.240
   H    91.690  53.340  58.190
   H    92.660  54.400  59.220
   H    93.270  53.910  57.650
   H    94.850  48.260  59.380
   H    95.390  49.880  59.750
   H    95.430  49.290  58.090
   H    91.690  49.080  57.590
   H    93.250  48.740  56.850
   H    92.690  47.780  58.210
   H    92.820  48.650  60.590
   H    91.540  49.630  59.940
   H    92.410  52.190  66.220
   H    90.850  51.440  66.450
   H    92.700  54.040  64.490
   H    91.300  54.980  64.050
   H    91.580  53.510  63.200
   H    88.010  53.270  62.550
   H    89.420  51.100  61.590
   H    88.310  52.150  60.760
   H    88.820  48.770  62.080
   H    87.180  48.170  61.890
   H    87.580  49.230  63.230
   H    87.210  48.910  59.530
   H    87.640  50.560  59.080
   H    88.840  49.490  59.770
   H    85.210  53.790  62.600
   H    86.130  53.360  61.160
   H    84.400  53.020  61.260
   H    84.530  50.210  63.710
   H    84.100  51.890  64.020
   H    83.510  51.080  62.560
   H    86.890  50.940  64.140
   H    86.470  52.600  64.230
   H    91.800  54.400  66.740
   H    90.420  55.160  66.060
   H    90.430  56.090  68.360
   H    89.040  55.390  69.240
   H    88.890  55.910  67.590
   H    86.850  52.350  69.020
   H    86.970  49.980  67.110
   H    86.360  51.530  66.640
   H    84.090  52.060  66.890
   H    84.560  52.630  68.480
   H    83.150  51.590  68.290
   H    84.470  49.650  66.200
   H    83.420  49.200  67.520
   H    85.000  48.450  67.360
   H    85.830  47.530  69.830
   H    87.550  47.740  70.060
   H    86.840  48.120  68.500
   H    86.300  50.600  72.040
   H    87.450  49.260  71.990
   H    85.730  48.920  72.040
   H    88.500  49.850  69.300
   H    88.100  51.040  70.480
   H    90.080  52.870  69.660
   H    91.270  52.410  68.520
   H    92.590  55.510  68.450
   H    93.760  55.100  69.670
   H    93.440  53.960  68.360
   H    93.810  51.680  72.570
   H    96.220  53.280  71.690
   H    95.870  51.630  71.340
   H    98.300  53.210  73.010
   H    98.320  51.690  72.140
   H    98.700  51.710  73.840
   H    96.920  50.010  74.420
   H    95.280  50.180  73.790
   H    96.620  49.860  72.690
   H    95.500  55.940  73.920
   H    96.960  55.260  74.610
   H    96.510  54.880  72.970
   H    93.990  55.120  75.720
   H    95.440  54.630  76.570
   H    94.120  53.480  76.340
   H    93.650  54.530  73.230
   H    93.260  53.120  74.160
   H    90.320  54.680  71.260
   H    91.910  55.260  71.670
   H    91.070  56.010  70.360
  