239
PTMA_CHAIN10_time500
 C    82.870  77.350  64.390
   C    84.340  76.930  64.090
   C    84.680  75.900  65.200
   C    85.400  78.010  64.330
   O    86.590  77.840  64.180
   O    84.840  79.200  64.700
   C    85.450  80.250  65.320
   C    85.200  81.480  64.430
   C    85.840  82.750  65.140
   C    87.360  82.700  64.980
   C    85.210  83.980  64.420
   N    85.470  82.860  66.590
   O    85.710  83.970  67.180
   C    85.210  81.620  67.410
   C    86.550  81.200  68.090
   C    84.180  82.000  68.490
   C    84.660  80.480  66.630
   C    84.390  76.210  62.670
   C    85.380  76.400  61.500
   C    85.320  77.830  61.000
   C    86.770  75.870  61.920
   O    87.790  76.320  61.420
   O    86.720  74.890  62.900
   C    87.980  74.330  63.400
   C    88.420  74.970  64.690
   C    89.720  74.340  65.350
   C    90.950  75.170  65.130
   C    89.580  74.170  66.860
   N    90.040  72.930  64.860
   O    91.080  72.460  65.140
   C    89.070  72.120  64.000
   C    89.810  71.590  62.760
   C    88.710  70.850  64.890
   C    87.750  72.870  63.680
   C    84.920  75.530  60.300
   C    85.800  75.090  59.040
   C    84.630  74.750  58.050
   C    86.560  73.770  59.240
   O    86.880  73.370  60.410
   O    86.690  73.030  58.120
   C    87.030  71.650  58.220
   C    88.490  71.460  58.320
   C    88.990  69.980  58.290
   C    89.490  69.450  59.660
   C    90.260  69.860  57.360
   N    87.970  69.040  57.690
   O    88.080  67.860  57.910
   C    86.870  69.510  56.790
   C    85.560  68.820  57.260
   C    87.200  69.050  55.320
   C    86.630  71.030  56.830
   C    86.690  76.200  58.300
   C    88.010  76.030  57.410
   C    89.050  75.230  58.260
   C    87.790  75.360  56.020
   O    88.690  74.730  55.460
   O    86.570  75.550  55.480
   C    86.310  75.130  54.160
   C    85.850  73.660  54.300
   C    85.190  73.010  53.040
   C    84.430  71.770  53.550
   C    86.210  72.550  52.000
   N    84.270  73.980  52.350
   O    83.320  73.540  51.680
   C    84.630  75.450  52.320
   C    85.590  75.630  51.100
   C    83.340  76.310  52.030
   C    85.140  76.030  53.650
   C    88.920  77.310  57.200
   C    88.450  78.680  56.600
   C    87.380  78.490  55.500
   C    87.790  79.650  57.580
   O    87.050  79.290  58.480
   O    88.190  80.920  57.450
   C    87.370  81.840  58.110
   C    87.930  82.070  59.540
   C    87.000  83.010  60.330
   C    85.690  82.390  60.820
   C    87.900  83.450  61.540
   N    86.540  84.200  59.510
   O    85.920  85.110  60.060
   C    86.680  84.270  58.060
   C    87.150  85.620  57.570
   C    85.230  84.170  57.530
   C    87.540  83.180  57.390
   C    89.660  79.400  55.900
   C    91.040  79.760  56.530
   C    92.160  79.060  55.680
   C    91.150  79.300  58.030
   O    91.720  78.260  58.390
   O    90.830  80.340  58.920
   C    91.400  80.280  60.190
   C    91.390  81.620  60.790
   C    92.170  81.660  62.140
   C    91.690  82.730  63.060
   C    93.630  82.070  61.750
   N    92.210  80.270  62.810
   O    93.040  79.930  63.590
   C    91.160  79.240  62.450
   C    89.990  79.490  63.430
   C    91.630  77.800  62.730
   C    90.560  79.320  61.060
   C    91.260  81.240  56.440
   H    82.140  76.540  64.290
   H    82.940  77.760  65.390
   H    82.620  78.170  63.720
   H    84.530  76.400  66.160
   H    85.740  75.650  65.220
   H    84.050  75.040  65.030
   H    86.500  80.010  65.500
   H    85.310  81.520  63.350
   H    84.120  81.590  64.370
   H    87.940  82.670  65.910
   H    87.670  83.640  64.530
   H    87.850  81.930  64.380
   H    84.220  84.170  64.850
   H    85.100  84.000  63.340
   H    85.840  84.840  64.630
   H    87.060  82.120  68.400
   H    86.430  80.660  69.020
   H    87.200  80.550  67.500
   H    84.610  82.610  69.280
   H    83.650  81.210  69.030
   H    83.540  82.730  68.000
   H    83.590  80.580  66.430
   H    84.640  79.630  67.310
   H    84.300  75.140  62.870
   H    83.430  76.360  62.180
   H    86.120  78.400  61.480
   H    84.460  78.370  61.420
   H    85.340  77.980  59.930
   H    88.790  74.460  62.680
   H    88.540  76.040  64.490
   H    87.540  74.910  65.320
   H    91.860  74.890  65.670
   H    91.290  75.270  64.100
   H    90.750  76.140  65.590
   H    88.590  73.780  67.100
   H    89.670  75.150  67.340
   H    90.240  73.410  67.280
   H    89.080  71.090  62.120
   H    90.230  72.490  62.310
   H    90.730  71.060  62.980
   H    89.550  70.370  65.390
   H    88.050  71.080  65.730
   H    88.270  70.100  64.240
   H    87.010  72.680  64.450
   H    87.280  72.410  62.810
   H    84.010  76.020  59.980
   H    84.690  74.580  60.800
   H    84.170  73.870  58.510
   H    83.830  75.460  57.890
   H    84.990  74.470  57.060
   H    86.360  71.280  59.000
   H    88.690  71.860  59.320
   H    89.060  72.060  57.610
   H    88.760  69.580  60.450
   H    90.450  69.870  59.950
   H    89.790  68.410  59.680
   H    90.650  68.850  57.300
   H    89.990  70.180  56.350
   H    91.070  70.460  57.770
   H    84.710  69.320  56.790
   H    85.540  69.090  58.320
   H    85.600  67.740  57.130
   H    86.340  69.110  54.650
   H    88.060  69.520  54.860
   H    87.410  67.990  55.330
   H    85.590  71.270  56.610
   H    87.340  71.350  56.060
   H    87.000  76.870  59.100
   H    86.080  76.820  57.630
   H    89.050  74.160  58.030
   H    88.750  75.370  59.290
   H    90.110  75.500  58.270
   H    87.160  75.220  53.480
   H    85.160  73.530  55.140
   H    86.640  72.950  54.540
   H    83.620  72.000  54.240
   H    85.020  71.120  54.200
   H    83.930  71.100  52.840
   H    86.580  71.580  52.330
   H    85.930  72.550  50.940
   H    87.070  73.220  52.050
   H    85.680  76.650  50.720
   H    86.570  75.170  51.230
   H    85.220  75.130  50.210
   H    83.570  77.360  52.210
   H    82.880  76.110  51.070
   H    82.480  76.120  52.670
   H    84.280  76.170  54.300
   H    85.570  77.000  53.430
   H    89.290  77.560  58.190
   H    89.720  77.020  56.520
   H    87.520  77.690  54.770
   H    87.200  79.360  54.870
   H    86.390  78.460  55.960
   H    86.300  81.670  58.130
   H    88.930  82.480  59.430
   H    87.860  81.120  60.070
   H    85.800  81.380  61.220
   H    85.020  82.190  59.990
   H    85.230  83.040  61.570
   H    88.710  84.090  61.190
   H    88.380  82.680  62.150
   H    87.240  84.000  62.220
   H    88.230  85.750  57.640
   H    86.720  86.440  58.140
   H    86.790  85.780  56.550
   H    84.740  85.120  57.750
   H    84.710  83.280  57.870
   H    85.270  84.120  56.440
   H    88.610  83.380  57.340
   H    87.270  82.910  56.370
   H    90.000  78.850  55.020
   H    89.330  80.350  55.460
   H    91.990  77.990  55.720
   H    92.240  79.350  54.630
   H    93.160  79.250  56.080
   H    92.450  79.990  60.140
   H    90.340  81.840  60.980
   H    91.760  82.270  60.000
   H    91.010  82.290  63.800
   H    91.140  83.570  62.650
   H    92.540  83.120  63.620
   H    94.150  81.340  61.120
   H    93.730  83.060  61.300
   H    94.200  81.970  62.670
   H    90.300  79.410  64.470
   H    89.550  80.480  63.520
   H    89.230  78.710  63.360
   H    91.930  77.650  63.770
   H    92.570  77.510  62.260
   H    90.950  77.000  62.450
   H    89.540  79.690  61.090
   H    90.460  78.360  60.530
   H    90.400  81.800  56.790
   H    92.050  81.630  57.080
   H    91.460  81.430  55.380
  