239
PTMA_CHAIN9_time50
 C    95.370  44.890  64.280
   C    95.110  46.160  65.130
   C    96.430  47.030  65.050
   C    94.930  45.650  66.620
   O    95.320  46.390  67.540
   O    94.490  44.390  66.740
   C    94.280  43.910  68.120
   C    93.290  42.820  67.980
   C    92.840  42.240  69.290
   C    91.960  43.280  70.050
   C    91.980  40.990  69.150
   N    94.080  41.910  70.030
   H    94.060  40.990  70.620
   C    95.300  42.830  70.080
   C    95.050  43.810  71.160
   C    96.440  41.930  70.600
   C    95.540  43.380  68.690
   C    93.900  46.780  64.450
   C    93.020  47.920  65.000
   C    92.080  47.310  66.060
   C    93.950  49.000  65.650
   O    94.000  49.300  66.830
   O    94.650  49.680  64.770
   C    95.410  50.890  65.060
   C    96.790  50.630  65.640
   C    97.440  51.890  66.080
   C    96.810  52.280  67.470
   C    98.880  51.540  66.350
   N    97.380  52.930  65.130
   O    98.010  53.960  65.280
   C    96.730  52.730  63.710
   C    96.030  54.110  63.430
   C    97.740  52.340  62.630
   C    95.580  51.690  63.800
   C    92.300  48.610  63.780
   C    91.270  49.790  63.870
   C    89.920  49.120  64.200
   C    91.280  50.340  62.420
   O    92.160  51.080  62.060
   O    90.270  50.100  61.600
   C    90.170  50.740  60.320
   C    88.800  51.240  60.100
   C    88.500  51.730  58.650
   C    88.210  53.200  58.560
   C    87.290  51.000  58.040
   N    89.670  51.390  57.730
   H    89.640  51.980  56.820
   C    90.620  50.270  57.880
   C    91.970  50.740  57.490
   C    90.290  49.100  56.910
   C    90.540  49.730  59.300
   C    91.620  50.920  64.920
   C    90.980  52.330  65.050
   C    91.510  53.250  63.900
   C    89.470  52.390  65.090
   O    88.850  53.290  64.620
   O    88.890  51.370  65.570
   C    87.430  51.270  65.540
   C    86.740  50.960  64.260
   C    85.200  50.770  64.270
   C    84.990  49.860  63.090
   C    84.460  52.170  64.080
   N    84.650  50.110  65.510
   O    83.470  49.820  65.540
   C    85.580  49.890  66.710
   C    85.120  50.790  67.910
   C    85.270  48.480  67.170
   C    87.090  50.130  66.490
   C    91.700  52.990  66.400
   C    90.920  53.370  67.730
   C    89.810  54.490  67.520
   C    90.140  52.080  68.260
   O    89.070  52.190  68.830
   O    90.940  50.950  68.300
   C    90.780  50.000  69.430
   C    89.690  48.980  69.120
   C    89.730  47.840  70.120
   C    88.430  47.780  70.930
   C    89.670  46.440  69.320
   N    90.890  47.890  71.040
   H    90.760  47.410  72.010
   C    92.230  48.310  70.640
   C    92.940  47.040  70.260
   C    92.950  48.900  71.860
   C    92.080  49.250  69.470
   C    91.910  53.660  68.960
   C    92.650  55.010  69.210
   C    93.220  55.650  67.860
   C    93.790  54.850  70.240
   O    94.570  55.770  70.510
   O    93.930  53.660  70.800
   C    95.060  53.350  71.550
   C    94.870  52.080  72.360
   C    95.920  51.880  73.360
   C    95.920  50.400  73.850
   C    95.400  52.680  74.600
   N    97.290  52.340  72.920
   O    98.150  52.180  73.780
   C    97.520  53.130  71.640
   C    98.750  52.460  70.880
   C    97.900  54.550  72.060
   C    96.320  53.180  70.750
   C    91.680  56.020  69.910
   H    95.550  45.140  63.230
   H    96.310  44.470  64.640
   H    94.510  44.220  64.290
   H    96.550  47.370  64.020
   H    97.320  46.580  65.490
   H    96.330  47.920  65.670
   H    93.890  44.750  68.710
   H    92.370  43.180  67.520
   H    93.740  42.190  67.220
   H    92.070  44.270  69.620
   H    92.150  43.360  71.120
   H    90.900  43.100  69.860
   H    92.210  40.460  68.220
   H    90.900  41.140  69.110
   H    92.120  40.210  69.890
   H    95.850  44.550  71.180
   H    94.130  44.370  70.980
   H    94.920  43.340  72.140
   H    96.740  41.170  69.870
   H    96.240  41.340  71.490
   H    97.350  42.460  70.920
   H    95.960  42.650  68.010
   H    96.290  44.180  68.750
   H    94.260  46.950  63.430
   H    93.160  45.990  64.420
   H    91.470  48.150  66.400
   H    92.490  46.820  66.940
   H    91.280  46.660  65.700
   H    94.820  51.610  65.640
   H    96.620  49.960  66.480
   H    97.330  50.110  64.850
   H    96.060  53.070  67.350
   H    96.470  51.440  68.070
   H    97.560  52.750  68.100
   H    98.890  50.730  67.080
   H    99.430  52.410  66.700
   H    99.460  51.310  65.450
   H    95.200  54.340  64.090
   H    96.660  55.000  63.500
   H    95.670  54.130  62.400
   H    98.020  51.290  62.540
   H    97.380  52.730  61.680
   H    98.680  52.870  62.780
   H    95.680  51.020  62.950
   H    94.580  52.120  63.690
   H    91.870  47.730  63.300
   H    93.050  48.990  63.090
   H    89.110  49.460  63.570
   H    90.040  48.050  64.020
   H    89.640  49.220  65.250
   H    90.850  51.590  60.200
   H    88.610  52.090  60.750
   H    88.140  50.380  60.260
   H    87.470  53.440  59.330
   H    87.660  53.560  57.680
   H    89.100  53.800  58.720
   H    87.040  51.270  57.020
   H    87.500  49.930  58.010
   H    86.430  51.190  58.680
   H    92.360  51.430  58.240
   H    92.010  51.320  56.570
   H    92.690  49.920  57.430
   H    90.980  48.250  57.000
   H    89.280  48.750  57.130
   H    90.220  49.340  55.850
   H    91.390  49.160  59.650
   H    89.750  48.980  59.380
   H    92.680  51.160  64.850
   H    91.600  50.450  65.910
   H    91.000  52.900  63.000
   H    92.600  53.270  63.850
   H    91.110  54.250  64.030
   H    87.070  52.210  65.950
   H    87.220  50.060  63.880
   H    87.000  51.790  63.600
   H    85.420  48.870  63.280
   H    85.310  50.230  62.120
   H    83.920  49.710  63.010
   H    83.420  51.980  63.820
   H    84.450  52.700  65.040
   H    84.930  52.760  63.300
   H    84.060  50.690  68.120
   H    85.610  50.530  68.850
   H    85.360  51.850  67.800
   H    85.870  48.060  67.980
   H    84.240  48.400  67.500
   H    85.410  47.760  66.370
   H    87.450  49.180  66.090
   H    87.690  50.290  67.390
   H    92.430  52.300  66.820
   H    92.260  53.890  66.150
   H    90.240  55.360  67.020
   H    89.490  54.860  68.500
   H    88.930  54.160  66.970
   H    90.630  50.580  70.340
   H    89.670  48.580  68.110
   H    88.810  49.620  69.240
   H    88.460  47.040  71.740
   H    87.630  47.410  70.280
   H    88.310  48.730  71.450
   H    90.040  45.680  70.010
   H    90.180  46.380  68.360
   H    88.670  46.070  69.110
   H    93.830  47.270  69.670
   H    92.390  46.440  69.540
   H    93.240  46.440  71.110
   H    92.660  49.920  72.110
   H    94.030  48.910  71.790
   H    92.670  48.310  72.740
   H    92.170  48.730  68.520
   H    92.940  49.920  69.530
   H    91.300  53.450  69.840
   H    92.560  52.790  69.030
   H    92.540  55.820  67.030
   H    93.630  56.650  68.020
   H    94.070  55.080  67.490
   H    95.270  54.150  72.260
   H    94.890  51.260  71.640
   H    93.940  52.090  72.920
   H    94.950  50.110  74.260
   H    96.650  50.110  74.610
   H    95.980  49.670  73.050
   H    94.870  53.590  74.320
   H    94.780  52.070  75.260
   H    96.170  53.180  75.190
   H    99.680  52.540  71.450
   H    98.490  51.400  70.860
   H    98.980  53.000  69.960
   H    98.970  54.720  72.100
   H    97.490  54.870  73.020
   H    97.520  55.310  71.370
   H    96.240  52.330  70.070
   H    96.400  53.970  70.000
   H    91.040  55.480  70.610
   H    92.230  56.750  70.500
   H    91.130  56.570  69.160
  