239
PTMA_CHAIN1_time500
 C    88.670  23.320  74.110
   C    88.440  24.820  73.700
   C    86.970  25.210  74.100
   C    88.660  24.910  72.180
   O    87.830  25.410  71.400
   O    89.860  24.540  71.760
   C    90.450  24.910  70.490
   C    91.840  25.270  70.740
   C    92.620  25.560  69.400
   C    93.080  26.980  69.350
   C    93.820  24.690  69.300
   N    91.750  25.320  68.240
   H    91.800  26.020  67.410
   C    90.690  24.280  68.130
   C    89.520  24.970  67.550
   C    91.180  23.160  67.230
   C    90.430  23.750  69.530
   C    89.490  25.660  74.490
   C    89.580  27.290  74.470
   C    89.640  27.910  73.050
   C    88.380  27.860  75.300
   O    87.680  28.820  74.910
   O    88.170  27.210  76.500
   C    87.270  27.520  77.550
   C    85.820  27.150  77.160
   C    84.830  27.410  78.200
   C    84.130  28.770  78.000
   C    83.780  26.340  78.010
   N    85.310  27.370  79.590
   H    84.700  27.710  80.430
   C    86.660  26.880  79.970
   C    87.160  27.840  81.090
   C    86.360  25.560  80.670
   C    87.660  26.770  78.800
   C    90.830  27.650  75.390
   C    91.620  29.010  75.280
   C    92.490  28.880  74.060
   C    92.670  29.130  76.420
   O    93.080  30.210  76.910
   O    93.090  27.870  76.870
   C    94.230  27.850  77.710
   C    95.560  28.050  76.990
   C    96.880  27.860  77.900
   C    97.400  29.300  78.030
   C    97.910  27.000  77.160
   N    96.430  27.390  79.210
   H    96.760  27.840  80.150
   C    95.310  26.460  79.440
   C    94.610  26.740  80.810
   C    95.930  25.150  79.400
   C    94.200  26.510  78.350
   C    90.780  30.360  75.250
   C    90.240  31.240  76.390
   C    89.940  30.330  77.620
   C    91.180  32.360  76.900
   O    91.300  32.680  78.070
   O    91.810  32.890  75.900
   C    93.170  33.320  76.030
   C    93.920  32.650  74.930
   C    95.390  33.200  74.920
   C    96.040  33.130  73.520
   C    96.350  32.360  75.770
   N    95.530  34.630  75.340
   H    96.530  35.060  75.330
   C    94.430  35.490  75.850
   C    94.650  35.880  77.250
   C    94.400  36.710  74.980
   C    93.110  34.790  75.660
   C    88.800  31.790  76.010
   C    88.470  33.060  75.160
   C    88.570  34.340  75.990
   C    89.280  33.210  73.820
   O    89.920  34.190  73.540
   O    89.130  32.100  72.940
   C    89.540  32.090  71.530
   C    90.930  31.610  71.210
   C    91.280  31.900  69.800
   C    91.720  33.350  69.750
   C    92.390  30.990  69.170
   N    90.020  31.800  69.000
   H    90.040  32.250  68.010
   C    88.820  31.060  69.360
   C    88.910  29.700  68.740
   C    87.620  31.730  68.700
   C    88.630  31.030  70.860
   C    86.980  32.850  74.700
   C    85.720  32.990  75.590
   C    85.730  32.070  76.870
   C    84.620  32.500  74.590
   O    83.910  33.210  73.920
   O    84.600  31.230  74.680
   C    83.980  30.460  73.580
   C    85.070  30.050  72.570
   C    84.560  28.960  71.580
   C    85.770  28.300  71.010
   C    83.780  29.530  70.390
   N    83.740  27.850  72.160
   O    83.720  26.740  71.590
   C    82.900  28.020  73.440
   C    83.010  26.640  74.220
   C    81.380  28.310  73.110
   C    83.420  29.140  74.270
   C    85.350  34.420  76.080
   H    88.320  23.180  75.140
   H    88.100  22.680  73.440
   H    89.730  23.070  74.050
   H    86.720  25.050  75.150
   H    86.200  24.730  73.500
   H    86.820  26.260  73.850
   H    90.000  25.850  70.190
   H    91.880  26.160  71.370
   H    92.380  24.490  71.280
   H    93.820  27.170  68.580
   H    93.630  27.270  70.250
   H    92.260  27.670  69.140
   H    94.380  24.880  70.210
   H    94.460  24.940  68.450
   H    93.610  23.630  69.230
   H    89.700  25.290  66.520
   H    88.800  24.160  67.490
   H    89.090  25.790  68.130
   H    90.400  22.410  67.180
   H    92.140  22.700  67.470
   H    91.270  23.550  66.210
   H    91.220  23.050  69.810
   H    89.490  23.220  69.570
   H    89.450  25.380  75.540
   H    90.460  25.270  74.180
   H    89.700  29.000  73.010
   H    88.820  27.450  72.510
   H    90.430  27.550  72.390
   H    87.380  28.590  77.730
   H    85.510  27.740  76.300
   H    85.980  26.120  76.860
   H    83.350  28.860  78.760
   H    84.900  29.530  78.160
   H    83.660  28.790  77.020
   H    82.940  26.430  78.700
   H    84.240  25.370  78.210
   H    83.370  26.280  77.000
   H    86.450  27.940  81.910
   H    88.010  27.350  81.550
   H    87.430  28.800  80.660
   H    87.310  25.050  80.810
   H    86.060  25.580  81.720
   H    85.760  24.900  80.040
   H    87.800  25.700  78.680
   H    88.610  27.180  79.160
   H    91.470  26.790  75.230
   H    90.620  27.360  76.420
   H    93.270  29.610  73.830
   H    92.930  27.890  73.910
   H    91.880  29.030  73.170
   H    94.030  28.610  78.470
   H    95.540  29.030  76.520
   H    95.630  27.400  76.110
   H    97.670  29.620  77.030
   H    98.350  29.400  78.550
   H    96.650  30.000  78.400
   H    97.490  26.040  76.870
   H    98.050  27.480  76.190
   H    98.840  26.890  77.710
   H    95.360  26.510  81.560
   H    93.800  26.040  81.010
   H    94.090  27.690  80.910
   H    95.090  24.490  79.620
   H    96.310  24.940  78.410
   H    96.680  25.050  80.190
   H    93.190  26.310  78.700
   H    94.490  25.790  77.580
   H    89.950  30.080  74.600
   H    91.340  31.000  74.560
   H    90.840  29.960  78.090
   H    89.370  29.450  77.320
   H    89.350  30.870  78.360
   H    93.620  32.940  76.950
   H    93.450  32.920  73.990
   H    93.780  31.570  74.960
   H    95.300  33.590  72.870
   H    96.130  32.110  73.150
   H    97.000  33.650  73.480
   H    96.540  32.820  76.740
   H    96.010  31.350  75.990
   H    97.400  32.400  75.480
   H    93.720  36.290  77.640
   H    94.750  35.030  77.920
   H    95.450  36.620  77.270
   H    94.020  36.520  73.980
   H    93.720  37.500  75.300
   H    95.300  37.230  74.660
   H    92.830  34.860  74.600
   H    92.320  35.310  76.200
   H    88.230  30.930  75.660
   H    88.310  32.030  76.950
   H    88.130  34.110  76.960
   H    88.030  35.220  75.630
   H    89.590  34.670  76.190
   H    89.320  33.090  71.170
   H    91.020  30.530  71.360
   H    91.600  32.040  71.960
   H    92.750  33.530  70.070
   H    91.050  34.090  70.200
   H    91.790  33.740  68.740
   H    92.210  29.920  69.190
   H    93.340  31.200  69.670
   H    92.570  31.240  68.120
   H    88.980  29.770  67.660
   H    88.030  29.120  69.040
   H    89.810  29.260  69.170
   H    87.330  32.620  69.260
   H    86.760  31.050  68.710
   H    87.770  32.030  67.670
   H    88.680  30.070  71.370
   H    87.620  31.290  71.190
   H    86.760  33.440  73.810
   H    86.950  31.830  74.320
   H    86.290  32.580  77.660
   H    84.710  32.180  77.250
   H    86.030  31.030  76.750
   H    83.250  31.090  73.060
   H    86.050  29.850  73.020
   H    85.370  30.860  71.920
   H    86.580  28.960  70.690
   H    85.490  27.770  70.100
   H    86.240  27.610  71.710
   H    84.340  29.860  69.520
   H    82.840  29.050  70.130
   H    83.410  30.410  70.910
   H    82.280  26.570  75.020
   H    82.830  25.750  73.620
   H    83.980  26.510  74.700
   H    81.040  27.800  72.210
   H    81.310  29.360  72.820
   H    80.660  28.040  73.880
   H    84.220  28.690  74.870
   H    82.590  29.320  74.950
   H    84.430  34.370  76.650
   H    86.110  34.780  76.770
   H    85.210  35.120  75.260
  