239
PTMA_CHAIN9_time0point005
 C    96.150  46.680  67.940
   C    94.810  47.430  68.190
   C    95.080  48.380  69.430
   C    93.780  46.340  68.650
   O    93.390  46.200  69.820
   O    93.550  45.460  67.650
   C    93.070  44.210  68.050
   C    91.550  44.210  68.170
   C    90.990  42.810  68.590
   C    91.060  42.790  70.170
   C    89.530  42.740  68.230
   N    91.850  41.700  68.010
   H    91.400  40.730  68.180
   C    92.570  41.940  66.730
   C    93.570  40.800  66.460
   C    91.570  42.080  65.530
   C    93.420  43.260  66.840
   C    94.400  48.170  66.910
   C    93.400  49.410  66.910
   C    92.110  49.040  67.600
   C    94.170  50.630  67.580
   O    93.550  51.380  68.400
   O    95.350  50.880  67.020
   C    96.070  52.090  67.340
   C    97.240  51.810  68.320
   C    98.610  51.660  67.700
   C    99.600  51.560  68.890
   C    98.730  50.360  66.930
   N    98.950  52.890  66.740
   O    99.880  53.660  67.150
   C    97.770  53.580  66.130
   C    97.330  54.830  66.960
   C    98.150  54.100  64.710
   C    96.550  52.680  66.050
   C    93.210  49.820  65.360
   C    91.990  50.640  64.770
   C    90.830  49.700  64.530
   C    92.600  51.160  63.440
   O    93.520  52.020  63.470
   O    92.230  50.490  62.380
   C    92.980  50.710  61.140
   C    92.620  52.070  60.500
   C    93.350  52.310  59.210
   C    94.850  52.740  59.570
   C    92.730  53.570  58.560
   N    93.300  51.170  58.290
   H    93.800  51.520  57.390
   C    93.380  49.790  58.800
   C    94.850  49.290  58.980
   C    92.740  48.760  57.820
   C    92.640  49.650  60.130
   C    91.530  51.850  65.730
   C    90.830  53.220  65.240
   C    91.710  53.950  64.190
   C    89.390  53.180  64.610
   O    88.660  54.170  64.660
   O    89.230  52.140  63.810
   C    88.130  52.270  62.890
   C    88.360  51.430  61.610
   C    87.450  50.300  61.290
   C    87.780  49.100  62.170
   C    87.800  49.790  59.830
   N    85.970  50.600  61.470
   O    85.290  50.670  60.350
   C    85.660  51.600  62.460
   C    85.350  53.030  61.890
   C    84.440  51.150  63.240
   C    86.750  51.790  63.490
   C    90.790  54.240  66.480
   C    89.910  54.030  67.840
   C    89.570  55.470  68.330
   C    88.600  53.370  67.650
   O    87.580  53.920  67.240
   O    88.640  51.990  68.000
   C    87.350  51.560  68.550
   C    86.430  50.880  67.520
   C    85.090  50.610  68.130
   C    84.170  51.780  67.930
   C    84.460  49.420  67.290
   N    85.180  50.240  69.560
   H    84.320  49.840  70.100
   C    86.500  49.640  70.090
   C    86.670  48.200  69.600
   C    86.480  49.610  71.630
   C    87.670  50.490  69.620
   C    90.780  53.310  68.970
   C    91.810  54.040  69.870
   C    93.000  54.700  69.050
   C    92.450  52.970  70.870
   O    91.790  52.060  71.370
   O    93.750  53.230  71.230
   C    94.330  52.620  72.370
   C    95.760  52.390  72.090
   C    96.550  51.910  73.380
   C    98.070  52.170  73.060
   C    96.360  50.450  73.590
   N    96.120  52.540  74.700
   O    97.010  52.660  75.630
   C    95.280  53.840  74.510
   C    96.140  55.060  73.990
   C    94.640  54.280  75.840
   C    94.070  53.570  73.560
   C    91.270  55.110  70.880
   H    96.960  47.400  67.820
   H    96.470  46.040  68.770
   H    96.180  46.010  67.080
   H    95.880  49.080  69.200
   H    95.500  47.820  70.260
   H    94.260  48.980  69.820
   H    93.600  43.750  68.880
   H    91.220  45.000  68.840
   H    91.140  44.470  67.200
   H    92.080  42.830  70.550
   H    90.600  41.840  70.450
   H    90.520  43.560  70.720
   H    89.030  43.620  68.650
   H    89.100  41.860  68.700
   H    89.350  42.790  67.160
   H    93.080  39.850  66.230
   H    94.230  40.960  65.610
   H    94.180  40.630  67.350
   H    90.900  42.930  65.690
   H    90.970  41.170  65.450
   H    92.070  42.150  64.560
   H    93.490  43.870  65.940
   H    94.470  43.060  67.060
   H    95.370  48.300  66.430
   H    93.880  47.480  66.250
   H    91.370  49.840  67.670
   H    92.380  48.820  68.630
   H    91.710  48.180  67.060
   H    95.470  52.810  67.890
   H    97.340  52.640  69.020
   H    96.950  50.950  68.920
   H    99.610  52.400  69.590
   H    99.310  50.700  69.480
   H    100.630  51.500  68.550
   H    99.680  50.300  66.390
   H    97.940  50.210  66.190
   H    98.500  49.600  67.670
   H    96.440  55.210  66.470
   H    97.150  54.480  67.980
   H    98.090  55.600  67.100
   H    98.880  54.910  64.800
   H    98.530  53.240  64.160
   H    97.340  54.640  64.210
   H    96.710  51.920  65.280
   H    95.770  53.270  65.580
   H    93.220  48.930  64.720
   H    94.160  50.300  65.130
   H    90.290  49.510  65.450
   H    90.110  50.150  63.840
   H    91.180  48.790  64.040
   H    94.040  50.670  61.360
   H    92.820  52.860  61.230
   H    91.530  52.030  60.410
   H    95.390  53.010  58.660
   H    95.370  51.900  60.030
   H    94.890  53.520  60.340
   H    91.690  53.440  58.250
   H    92.880  54.390  59.260
   H    93.250  53.900  57.660
   H    94.860  48.290  59.410
   H    95.420  49.820  59.740
   H    95.510  49.240  58.110
   H    91.710  49.020  57.570
   H    93.200  48.570  56.850
   H    92.680  47.800  58.320
   H    92.790  48.610  60.450
   H    91.550  49.560  60.090
   H    92.360  52.270  66.300
   H    90.830  51.390  66.430
   H    92.750  54.130  64.460
   H    91.490  55.020  64.190
   H    91.640  53.490  63.200
   H    88.010  53.320  62.600
   H    89.430  51.240  61.480
   H    88.400  52.170  60.810
   H    88.780  48.670  62.060
   H    87.070  48.320  61.900
   H    87.630  49.180  63.240
   H    87.210  48.910  59.580
   H    87.560  50.530  59.070
   H    88.840  49.450  59.810
   H    85.160  53.820  62.620
   H    86.120  53.280  61.160
   H    84.490  52.940  61.230
   H    84.640  50.230  63.780
   H    84.090  51.830  64.020
   H    83.590  51.030  62.580
   H    86.810  50.930  64.150
   H    86.480  52.670  64.090
   H    91.820  54.470  66.740
   H    90.380  55.130  66.000
   H    90.440  56.130  68.360
   H    89.270  55.440  69.380
   H    88.890  56.000  67.660
   H    86.790  52.350  69.060
   H    86.990  50.030  67.120
   H    86.440  51.510  66.630
   H    84.110  52.040  66.880
   H    84.450  52.680  68.480
   H    83.100  51.630  68.130
   H    84.590  49.560  66.220
   H    83.420  49.180  67.500
   H    85.010  48.490  67.440
   H    85.820  47.530  69.670
   H    87.570  47.760  70.040
   H    86.810  48.270  68.520
   H    86.180  50.590  72.000
   H    87.460  49.320  72.000
   H    85.820  48.840  72.030
   H    88.460  49.820  69.290
   H    88.150  51.090  70.390
   H    90.030  52.850  69.610
   H    91.100  52.350  68.550
   H    92.560  55.450  68.400
   H    93.680  55.280  69.660
   H    93.520  54.000  68.390
   H    93.780  51.710  72.620
   H    96.240  53.300  71.730
   H    95.900  51.550  71.410
   H    98.390  53.210  73.110
   H    98.420  51.850  72.080
   H    98.590  51.810  73.950
   H    96.910  49.990  74.400
   H    95.310  50.200  73.750
   H    96.680  49.900  72.700
   H    95.610  55.990  73.780
   H    96.970  55.110  74.690
   H    96.520  54.920  72.980
   H    93.990  55.130  75.630
   H    95.410  54.540  76.560
   H    94.090  53.400  76.180
   H    93.580  54.520  73.330
   H    93.220  53.100  74.040
   H    90.370  54.710  71.340
   H    91.910  55.270  71.750
   H    91.030  56.070  70.420
  