239
PTMA_CHAIN7_time0point005
 C    102.740  11.170  16.130
   C    102.600  12.670  16.440
   C    103.520  12.910  17.620
   C    101.160  12.840  16.900
   O    100.810  13.040  18.080
   O    100.280  12.580  15.920
   C    98.930  12.270  16.330
   C    98.030  13.480  16.520
   C    96.600  13.110  17.040
   C    96.740  12.890  18.560
   C    95.640  14.260  16.690
   N    96.210  11.780  16.410
   H    95.160  11.560  16.610
   C    96.790  11.380  15.090
   C    96.420  9.940  14.720
   C    96.300  12.350  13.980
   C    98.300  11.440  15.160
   C    102.880  13.590  15.180
   C    103.380  15.050  15.240
   C    102.250  15.820  16.030
   C    104.810  15.130  15.910
   O    105.140  15.950  16.790
   O    105.670  14.320  15.280
   C    107.060  14.410  15.540
   C    107.540  13.360  16.470
   C    108.250  12.100  15.730
   C    108.760  11.170  16.870
   C    107.230  11.340  14.940
   N    109.400  12.590  14.790
   O    110.570  12.220  15.140
   C    109.280  14.010  14.310
   C    110.140  14.970  15.200
   C    109.870  14.010  12.870
   C    107.840  14.450  14.190
   C    103.510  15.510  13.740
   C    103.500  17.050  13.250
   C    101.970  17.470  13.030
   C    104.230  16.890  11.920
   O    105.440  16.670  11.810
   O    103.400  16.900  10.860
   C    104.010  16.540  9.540
   C    104.880  17.580  8.940
   C    105.550  17.160  7.620
   C    106.700  16.210  7.900
   C    106.080  18.460  7.010
   N    104.480  16.620  6.660
   H    104.890  16.350  5.680
   C    103.450  15.690  7.200
   C    103.840  14.210  7.320
   C    102.250  15.720  6.230
   C    102.910  16.200  8.530
   C    104.220  18.090  14.200
   C    104.900  19.430  13.810
   C    105.980  19.270  12.690
   C    104.040  20.630  13.240
   O    104.460  21.770  13.330
   O    103.010  20.210  12.440
   C    102.480  21.240  11.600
   C    101.930  20.650  10.320
   C    100.430  20.700  10.040
   C    99.720  19.650  10.860
   C    100.190  20.230  8.600
   N    99.900  22.120  10.260
   O    99.540  22.770  9.240
   C    100.560  22.900  11.350
   C    101.490  24.000  10.740
   C    99.490  23.580  12.190
   C    101.350  22.040  12.320
   C    105.730  19.970  15.050
   C    105.130  20.480  16.420
   C    106.060  21.590  16.950
   C    103.730  21.140  16.300
   O    103.640  22.360  16.050
   O    102.730  20.380  16.710
   C    101.660  21.030  17.290
   C    100.530  21.440  16.310
   C    99.530  22.410  16.990
   C    99.970  23.890  16.870
   C    98.160  22.290  16.160
   N    99.350  22.040  18.470
   H    98.420  22.500  18.810
   C    99.640  20.620  18.860
   C    98.550  19.640  18.350
   C    99.680  20.570  20.410
   C    101.000  20.170  18.400
   C    105.080  19.330  17.540
   C    106.320  18.800  18.370
   C    107.480  18.250  17.490
   C    105.820  17.640  19.290
   O    104.730  17.600  19.840
   O    106.830  16.770  19.580
   C    106.650  15.840  20.720
   C    107.310  14.550  20.350
   C    107.430  13.590  21.540
   C    108.460  12.510  21.180
   C    106.030  12.870  21.750
   N    107.780  14.280  22.940
   O    108.340  13.550  23.780
   C    108.300  15.700  22.790
   C    109.770  15.710  22.220
   C    108.320  16.330  24.230
   C    107.370  16.540  21.920
   C    106.830  19.780  19.400
   H    103.790  11.020  15.860
   H    102.430  10.430  16.860
   H    102.240  10.930  15.190
   H    104.570  12.840  17.350
   H    103.480  12.150  18.400
   H    103.450  13.900  18.090
   H    98.720  11.640  17.190
   H    98.430  14.090  17.330
   H    97.970  14.110  15.630
   H    97.380  12.040  18.800
   H    95.760  12.560  18.910
   H    97.020  13.710  19.230
   H    96.030  15.130  17.230
   H    94.630  14.190  17.090
   H    95.480  14.510  15.640
   H    95.350  9.910  14.540
   H    97.060  9.670  13.870
   H    96.690  9.320  15.560
   H    96.640  13.370  14.170
   H    95.220  12.320  13.830
   H    96.570  12.000  12.980
   H    98.740  11.800  14.230
   H    98.800  10.480  15.210
   H    103.750  13.090  14.730
   H    102.140  13.460  14.390
   H    102.610  16.850  16.060
   H    102.250  15.600  17.100
   H    101.280  15.700  15.560
   H    107.340  15.320  16.060
   H    108.340  13.770  17.080
   H    106.700  12.930  17.010
   H    109.550  11.690  17.430
   H    107.960  11.020  17.600
   H    109.170  10.230  16.520
   H    107.540  10.410  14.460
   H    106.660  11.820  14.150
   H    106.320  10.960  15.400
   H    109.860  15.980  14.910
   H    109.870  15.060  16.260
   H    111.220  14.890  15.150
   H    110.940  13.800  12.970
   H    109.320  13.240  12.330
   H    109.700  14.990  12.430
   H    107.260  13.870  13.470
   H    107.830  15.470  13.790
   H    102.780  14.980  13.130
   H    104.440  15.000  13.480
   H    101.590  17.680  14.030
   H    101.840  18.320  12.350
   H    101.420  16.660  12.570
   H    104.600  15.620  9.630
   H    105.630  17.920  9.660
   H    104.260  18.460  8.770
   H    107.110  15.800  6.970
   H    106.430  15.260  8.370
   H    107.430  16.800  8.450
   H    105.310  19.170  6.730
   H    106.750  19.030  7.660
   H    106.710  18.350  6.130
   H    103.120  13.470  7.660
   H    104.710  14.180  7.980
   H    104.330  13.930  6.390
   H    101.910  16.740  6.050
   H    102.570  15.300  5.280
   H    101.470  15.070  6.610
   H    102.250  15.490  9.020
   H    102.340  17.130  8.430
   H    105.060  17.590  14.690
   H    103.460  18.410  14.910
   H    106.720  18.480  12.880
   H    106.560  20.190  12.570
   H    105.410  19.130  11.770
   H    103.120  22.100  11.420
   H    102.290  19.630  10.200
   H    102.460  21.100  9.480
   H    100.010  18.610  10.750
   H    98.650  19.710  10.630
   H    99.860  19.910  11.910
   H    99.140  20.200  8.300
   H    100.680  20.890  7.890
   H    100.510  19.210  8.390
   H    102.150  24.440  11.490
   H    102.260  23.440  10.200
   H    100.870  24.680  10.160
   H    98.800  22.880  12.660
   H    99.970  24.140  13.000
   H    98.930  24.300  11.600
   H    100.690  21.390  12.900
   H    101.850  22.620  13.090
   H    106.490  19.220  15.270
   H    106.270  20.860  14.720
   H    107.090  21.240  16.980
   H    105.660  21.960  17.900
   H    106.150  22.440  16.270
   H    101.960  21.930  17.820
   H    100.020  20.550  15.950
   H    101.050  21.860  15.450
   H    100.080  24.180  15.830
   H    100.950  23.920  17.330
   H    99.210  24.530  17.330
   H    98.430  22.470  15.120
   H    97.380  22.970  16.480
   H    97.730  21.290  16.200
   H    97.590  20.030  18.670
   H    98.670  18.650  18.780
   H    98.520  19.570  17.260
   H    100.250  21.380  20.840
   H    99.980  19.560  20.680
   H    98.670  20.680  20.820
   H    100.890  19.200  17.920
   H    101.610  20.010  19.290
   H    104.350  19.460  18.340
   H    104.600  18.520  16.990
   H    107.930  19.080  16.940
   H    108.270  17.810  18.100
   H    107.080  17.530  16.780
   H    105.630  15.540  20.930
   H    108.300  14.670  19.910
   H    106.780  14.020  19.560
   H    109.480  12.880  21.110
   H    108.180  12.040  20.230
   H    108.410  11.820  22.020
   H    106.180  12.070  22.480
   H    105.260  13.610  21.940
   H    105.730  12.420  20.800
   H    110.130  16.740  22.160
   H    110.470  15.060  22.740
   H    109.760  15.460  21.160
   H    108.640  17.370  24.140
   H    109.140  15.970  24.850
   H    107.310  16.500  24.590
   H    107.940  17.400  21.570
   H    106.580  16.950  22.550
   H    105.950  20.280  19.810
   H    107.480  19.350  20.160
   H    107.380  20.610  18.970
  