239
PTMA_CHAIN1_frame7
 C    7.240  21.270  60.410
   C    5.990  20.230  60.180
   C    6.660  18.810  60.190
   C    5.310  20.470  58.830
   O    4.560  19.640  58.370
   O    5.770  21.500  58.120
   C    5.470  21.660  56.840
   C    4.530  22.820  56.650
   C    4.220  23.320  55.230
   C    3.200  22.400  54.440
   C    3.600  24.780  55.340
   N    5.470  23.340  54.330
   O    5.420  24.060  53.280
   C    6.670  22.420  54.660
   C    6.540  21.160  53.880
   C    8.010  23.020  54.230
   C    6.820  22.040  56.210
   C    4.970  20.230  61.420
   C    3.640  21.110  61.530
   C    3.970  22.560  61.330
   C    2.580  20.600  60.590
   O    2.210  21.190  59.550
   O    2.510  19.300  60.720
   C    2.020  18.490  59.620
   C    2.930  17.170  59.640
   C    2.540  16.090  58.590
   C    2.890  16.670  57.210
   C    3.330  14.820  58.770
   N    0.990  15.880  58.520
   O    0.560  14.790  58.210
   C    -0.010  16.900  59.000
   C    -0.570  17.640  57.850
   C    -1.210  16.140  59.650
   C    0.640  17.860  60.020
   C    3.200  20.920  63.070
   C    1.790  21.520  63.610
   C    1.780  23.020  63.390
   C    1.990  21.230  65.160
   O    2.460  20.160  65.570
   O    1.450  22.260  65.930
   C    1.710  22.310  67.340
   C    0.560  21.810  68.180
   C    0.560  22.000  69.720
   C    1.440  20.890  70.430
   C    -0.860  21.870  70.090
   N    1.110  23.380  70.060
   O    0.690  23.950  71.070
   C    2.160  24.050  69.210
   C    3.580  23.560  69.600
   C    2.140  25.580  69.450
   C    1.930  23.790  67.690
   C    0.550  20.800  63.020
   C    -0.820  20.440  63.800
   C    -0.430  19.370  64.860
   C    -1.480  21.650  64.500
   O    -2.170  21.400  65.490
   O    -1.230  22.860  63.990
   C    -1.810  24.010  64.480
   C    -1.230  24.550  65.760
   C    -2.050  25.660  66.320
   C    -1.310  26.270  67.560
   C    -3.360  25.140  66.850
   N    -2.260  26.820  65.340
   O    -2.780  27.870  65.730
   C    -2.100  26.570  63.860
   C    -3.420  26.890  63.120
   C    -1.110  27.630  63.210
   C    -1.620  25.180  63.410
   C    -1.700  19.590  62.710
   C    -3.120  19.960  62.190
   C    -4.100  19.870  63.320
   C    -3.010  21.390  61.560
   O    -3.680  22.330  62.040
   O    -1.960  21.520  60.700
   C    -1.890  22.480  59.750
   C    -0.720  23.380  60.170
   C    -0.460  24.560  59.270
   C    -1.550  25.650  59.390
   C    0.950  25.100  59.550
   N    -0.390  24.100  57.820
   O    0.440  24.590  57.020
   C    -1.180  22.870  57.310
   C    -0.260  22.080  56.310
   C    -2.510  23.320  56.550
   C    -1.510  21.850  58.470
   C    -3.600  18.830  61.250
   C    -4.980  18.750  60.490
   C    -4.670  17.970  59.180
   C    -5.530  20.210  60.190
   O    -5.060  20.890  59.220
   O    -6.690  20.470  60.770
   C    -7.750  21.220  60.170
   C    -8.380  20.520  58.950
   C    -9.570  21.200  58.310
   C    -10.420  20.130  57.530
   C    -9.100  22.300  57.330
   N    -10.450  21.960  59.300
   O    -11.620  22.230  58.910
   C    -10.120  22.220  60.720
   C    -11.330  21.930  61.590
   C    -9.650  23.650  60.890
   C    -8.880  21.360  61.290
   C    -6.010  17.920  61.280
   H    7.870  21.360  59.520
   H    6.800  22.260  60.580
   H    7.710  20.890  61.320
   H    7.090  18.570  61.170
   H    7.350  18.740  59.360
   H    5.920  18.010  60.140
   H    5.070  20.760  56.380
   H    3.680  22.700  57.320
   H    5.030  23.630  57.180
   H    3.480  21.350  54.480
   H    3.060  22.650  53.390
   H    2.170  22.320  54.790
   H    4.310  25.550  55.630
   H    2.840  24.850  56.120
   H    3.190  25.140  54.400
   H    7.470  20.800  53.420
   H    6.140  20.290  54.390
   H    5.870  21.330  53.030
   H    8.130  23.250  53.170
   H    8.860  22.410  54.510
   H    8.070  24.000  54.720
   H    7.200  22.920  56.720
   H    7.580  21.270  56.400
   H    4.610  19.220  61.610
   H    5.600  20.460  62.280
   H    4.510  22.920  62.210
   H    3.180  23.200  60.930
   H    4.710  22.710  60.550
   H    1.890  19.040  58.690
   H    3.930  17.600  59.540
   H    2.880  16.590  60.550
   H    3.950  16.850  57.050
   H    2.670  15.880  56.490
   H    2.300  17.580  57.070
   H    4.390  15.080  58.750
   H    3.170  14.080  57.980
   H    3.010  14.230  59.630
   H    -0.930  16.960  57.080
   H    -1.360  18.340  58.130
   H    0.190  18.170  57.280
   H    -1.730  15.550  58.890
   H    -0.860  15.430  60.400
   H    -1.830  16.880  60.150
   H    0.730  17.390  61.000
   H    0.060  18.760  60.230
   H    3.980  21.300  63.730
   H    3.270  19.850  63.290
   H    2.800  23.410  63.430
   H    1.570  23.220  62.340
   H    1.100  23.560  64.040
   H    2.560  21.670  67.590
   H    0.440  20.750  67.960
   H    -0.250  22.330  67.670
   H    2.490  20.920  70.130
   H    1.120  19.870  70.230
   H    1.380  20.960  71.510
   H    -1.230  20.860  69.890
   H    -1.220  22.190  71.070
   H    -1.340  22.640  69.510
   H    3.850  22.680  69.010
   H    3.770  23.270  70.630
   H    4.270  24.380  69.390
   H    2.260  25.840  70.500
   H    2.870  26.150  68.890
   H    1.230  26.120  69.180
   H    2.640  24.360  67.090
   H    1.050  24.370  67.410
   H    0.860  19.780  62.770
   H    0.300  21.310  62.090
   H    -0.170  19.930  65.760
   H    0.410  18.730  64.590
   H    -1.310  18.830  65.220
   H    -2.880  23.820  64.560
   H    -0.230  24.990  65.720
   H    -1.170  23.660  66.390
   H    -0.350  26.700  67.250
   H    -1.160  25.450  68.260
   H    -1.910  27.040  68.050
   H    -3.770  25.790  67.630
   H    -4.120  25.180  66.060
   H    -3.190  24.130  67.220
   H    -3.570  27.970  63.100
   H    -3.320  26.510  62.100
   H    -4.260  26.410  63.620
   H    -1.510  28.600  63.520
   H    -0.050  27.550  63.430
   H    -1.060  27.590  62.120
   H    -0.540  25.200  63.250
   H    -2.030  24.810  62.470
   H    -1.070  19.290  61.880
   H    -1.900  18.630  63.180
   H    -4.000  18.990  63.960
   H    -5.160  20.030  63.160
   H    -3.840  20.710  63.970
   H    -2.840  23.010  59.660
   H    0.160  22.730  60.200
   H    -0.830  23.710  61.200
   H    -2.570  25.260  59.450
   H    -1.450  26.440  58.650
   H    -1.410  26.170  60.330
   H    1.040  26.120  59.200
   H    1.800  24.480  59.270
   H    1.070  25.220  60.630
   H    -0.320  22.480  55.300
   H    -0.500  21.010  56.320
   H    0.790  22.130  56.620
   H    -2.180  23.980  55.740
   H    -3.200  23.830  57.210
   H    -2.990  22.410  56.200
   H    -0.620  21.280  58.730
   H    -2.290  21.170  58.130
   H    -2.900  18.910  60.410
   H    -3.470  17.860  61.730
   H    -4.110  17.040  59.300
   H    -5.540  17.700  58.580
   H    -4.010  18.570  58.560
   H    -7.340  22.190  59.890
   H    -8.810  19.580  59.290
   H    -7.610  20.220  58.230
   H    -9.840  19.860  56.650
   H    -11.360  20.560  57.180
   H    -10.630  19.210  58.070
   H    -8.470  22.100  56.450
   H    -9.880  23.010  57.080
   H    -8.550  23.010  57.950
   H    -11.110  21.700  62.630
   H    -11.930  22.840  61.610
   H    -12.030  21.170  61.260
   H    -9.650  23.760  61.970
   H    -10.250  24.450  60.480
   H    -8.650  23.830  60.480
   H    -9.180  20.370  61.650
   H    -8.410  21.840  62.140
   H    -6.410  18.340  62.200
   H    -6.890  17.630  60.710
   H    -5.530  16.970  61.510
  