239
PTMA_CHAIN2_frame9
 C    88.290  15.380  81.210
   C    88.880  16.190  79.980
   C    90.400  16.440  80.190
   C    88.170  17.530  79.970
   O    87.230  17.820  79.290
   O    88.500  18.250  81.080
   C    87.850  19.520  81.390
   C    87.080  19.340  82.720
   C    86.470  20.640  83.290
   C    85.270  21.210  82.470
   C    85.950  20.260  84.720
   N    87.610  21.700  83.440
   O    87.420  22.650  84.180
   C    88.620  21.790  82.300
   C    88.040  22.710  81.210
   C    89.940  22.480  82.830
   C    89.000  20.500  81.630
   C    88.750  15.280  78.700
   C    87.580  15.400  77.530
   C    86.190  15.110  78.260
   C    87.640  16.730  76.710
   O    86.590  17.350  76.450
   O    88.910  17.120  76.380
   C    89.080  18.380  75.770
   C    89.710  19.320  76.930
   C    90.200  20.770  76.500
   C    89.080  21.850  76.530
   C    91.160  21.040  77.710
   N    90.890  20.740  75.190
   O    91.620  21.620  74.850
   C    90.390  19.740  74.130
   C    89.140  20.240  73.310
   C    91.490  19.670  73.070
   C    90.050  18.350  74.660
   C    87.830  14.260  76.510
   C    87.040  14.010  75.150
   C    87.170  12.460  74.960
   C    87.860  14.780  74.050
   O    87.460  15.860  73.580
   O    88.920  14.120  73.630
   C    89.820  14.620  72.660
   C    89.590  13.920  71.350
   C    90.570  14.470  70.220
   C    90.080  15.790  69.620
   C    90.540  13.430  69.090
   N    92.040  14.550  70.760
   O    93.000  14.550  69.920
   C    92.400  14.600  72.250
   C    92.970  15.980  72.730
   C    93.460  13.520  72.460
   C    91.220  14.280  73.140
   C    85.510  14.410  75.220
   C    84.390  13.990  74.080
   C    85.090  14.070  72.680
   C    83.930  12.540  74.480
   O    83.340  12.330  75.560
   O    84.270  11.570  73.620
   C    84.100  10.240  74.050
   C    82.690  9.700  73.630
   C    82.410  8.160  73.790
   C    81.220  7.860  72.800
   C    82.060  7.740  75.290
   N    83.660  7.420  73.240
   O    83.420  6.280  72.790
   C    85.110  7.910  73.460
   C    85.600  7.590  74.880
   C    86.060  7.200  72.430
   C    85.140  9.420  73.190
   C    83.250  15.130  74.000
   C    81.990  15.240  74.980
   C    81.300  16.610  74.750
   C    80.880  14.210  74.630
   O    81.000  13.460  73.690
   O    79.920  14.180  75.630
   C    78.930  13.200  75.480
   C    79.130  12.050  76.390
   C    78.000  11.010  76.380
   C    78.190  9.980  75.290
   C    78.260  10.090  77.610
   N    76.630  11.580  76.430
   O    75.730  10.810  76.650
   C    76.360  12.980  75.860
   C    75.200  13.690  76.670
   C    75.870  12.700  74.430
   C    77.660  13.910  75.840
   C    82.410  15.040  76.540
   C    81.830  15.930  77.730
   C    80.280  15.840  78.040
   C    82.270  17.440  77.580
   O    83.490  17.720  77.640
   O    81.260  18.300  77.730
   C    81.400  19.740  77.620
   C    80.690  20.200  76.390
   C    80.690  21.710  76.100
   C    79.800  21.980  74.900
   C    82.160  22.250  75.730
   N    80.150  22.420  77.380
   O    79.520  23.480  77.210
   C    80.530  21.910  78.730
   C    79.380  22.330  79.710
   C    81.820  22.520  79.260
   C    80.620  20.390  78.810
   C    82.490  15.270  78.940
   H    87.270  15.030  81.060
   H    88.710  14.380  81.360
   H    88.350  15.820  82.210
   H    90.850  17.020  79.390
   H    90.940  15.490  80.220
   H    90.630  16.900  81.160
   H    87.240  19.960  80.600
   H    86.290  18.590  82.670
   H    87.810  19.020  83.460
   H    85.050  22.230  82.790
   H    84.290  20.760  82.620
   H    85.510  21.020  81.420
   H    85.070  19.620  84.760
   H    85.870  21.110  85.410
   H    86.730  19.720  85.260
   H    87.350  22.180  80.560
   H    87.500  23.590  81.550
   H    88.820  23.080  80.550
   H    90.670  22.760  82.080
   H    90.490  21.890  83.570
   H    89.680  23.460  83.220
   H    89.830  20.000  82.130
   H    89.510  20.750  80.700
   H    89.690  15.350  78.150
   H    88.610  14.240  78.970
   H    86.130  15.630  79.220
   H    86.150  14.060  78.550
   H    85.360  15.420  77.630
   H    88.120  18.770  75.430
   H    89.070  19.420  77.810
   H    90.590  18.780  77.270
   H    88.640  21.800  77.520
   H    89.360  22.890  76.370
   H    88.270  21.560  75.860
   H    91.990  20.350  77.590
   H    90.630  21.010  78.660
   H    91.460  22.070  77.560
   H    89.080  19.610  72.430
   H    88.180  19.980  73.760
   H    89.090  21.280  72.990
   H    92.450  19.480  73.570
   H    91.320  18.790  72.450
   H    91.650  20.540  72.440
   H    90.950  17.830  74.990
   H    89.620  17.710  73.890
   H    87.620  13.360  77.090
   H    88.900  14.280  76.300
   H    86.950  12.200  73.930
   H    88.160  12.040  75.150
   H    86.390  11.950  75.540
   H    89.780  15.690  72.490
   H    88.540  13.980  71.060
   H    89.790  12.860  71.510
   H    90.260  15.900  68.550
   H    90.710  16.570  70.040
   H    89.070  16.000  69.980
   H    91.250  13.710  68.310
   H    90.960  12.460  69.380
   H    89.540  13.260  68.710
   H    92.190  16.600  73.180
   H    93.380  16.500  71.860
   H    93.760  15.850  73.460
   H    94.430  13.600  71.980
   H    93.620  13.420  73.540
   H    93.030  12.610  72.060
   H    91.310  14.700  74.140
   H    91.250  13.240  73.470
   H    85.600  15.490  75.240
   H    85.160  13.910  76.120
   H    85.980  13.440  72.590
   H    85.540  15.060  72.620
   H    84.460  13.810  71.830
   H    84.270  10.140  75.120
   H    82.640  9.900  72.560
   H    81.900  10.270  74.110
   H    81.440  7.910  71.740
   H    80.340  8.500  72.890
   H    80.750  6.900  73.050
   H    82.470  6.820  75.700
   H    82.270  8.440  76.100
   H    80.990  7.570  75.360
   H    86.390  8.310  75.110
   H    84.860  7.780  75.650
   H    86.090  6.620  74.900
   H    87.050  7.650  72.560
   H    86.160  6.120  72.350
   H    85.930  7.520  71.390
   H    84.940  9.600  72.140
   H    86.180  9.710  73.340
   H    83.570  16.180  74.000
   H    82.880  15.100  72.970
   H    80.450  16.890  75.370
   H    80.880  16.670  73.740
   H    81.970  17.470  74.730
   H    78.950  12.850  74.450
   H    79.390  12.460  77.370
   H    80.010  11.480  76.120
   H    78.240  10.330  74.250
   H    77.500  9.140  75.370
   H    79.170  9.520  75.370
   H    77.970  10.770  78.410
   H    79.270  9.690  77.740
   H    77.660  9.190  77.660
   H    75.590  14.200  77.540
   H    74.410  13.000  76.940
   H    74.640  14.410  76.080
   H    75.730  13.580  73.800
   H    74.920  12.170  74.460
   H    76.660  12.120  73.950
   H    77.700  14.430  76.800
   H    77.430  14.650  75.070
   H    82.070  14.030  76.780
   H    83.500  15.070  76.650
   H    79.920  14.840  78.280
   H    80.050  16.400  78.950
   H    79.610  16.210  77.260
   H    82.460  19.950  77.560
   H    79.650  19.880  76.450
   H    81.170  19.570  75.650
   H    79.840  23.040  74.630
   H    78.770  21.860  75.230
   H    79.980  21.340  74.030
   H    82.390  23.230  76.140
   H    83.020  21.620  75.990
   H    82.290  22.240  74.640
   H    79.490  21.840  80.680
   H    79.530  23.410  79.810
   H    78.390  22.010  79.410
   H    81.710  23.600  79.420
   H    82.660  22.390  78.580
   H    82.170  22.100  80.200
   H    79.630  19.940  78.710
   H    81.070  20.170  79.770
   H    82.040  15.560  79.890
   H    82.470  14.190  78.810
   H    83.510  15.660  79.080
  