239
PTMA_CHAIN6_time0point0005
 C    75.800  43.760  37.820
   C    77.240  43.550  38.380
   C    78.020  42.790  37.290
   C    77.060  42.640  39.610
   O    77.410  41.460  39.650
   O    76.350  43.270  40.580
   C    75.720  42.440  41.580
   C    76.670  42.040  42.710
   C    75.980  41.090  43.730
   C    76.160  39.640  43.200
   C    76.750  41.200  45.060
   N    74.490  41.340  43.790
   H    74.030  40.920  44.680
   C    74.040  42.740  43.540
   C    72.490  42.800  43.480
   C    74.490  43.750  44.630
   C    74.550  43.230  42.150
   C    77.820  44.960  38.720
   C    79.370  45.230  38.840
   C    79.970  44.250  39.850
   C    80.020  45.130  37.450
   O    81.040  44.480  37.210
   O    79.350  45.880  36.530
   C    79.960  46.100  35.220
   C    79.250  45.270  34.140
   C    78.200  46.040  33.300
   C    77.670  45.030  32.230
   C    76.960  46.360  34.180
   N    78.690  47.340  32.790
   O    78.820  47.380  31.370
   C    79.890  47.940  33.440
   C    81.260  47.530  32.840
   C    79.770  49.490  33.330
   C    79.890  47.600  34.950
   C    79.520  46.730  39.310
   C    80.820  47.390  39.980
   C    80.730  47.120  41.490
   C    80.580  48.880  39.640
   O    80.700  49.310  38.490
   O    80.130  49.630  40.680
   C    79.630  50.950  40.340
   C    80.780  51.950  40.140
   C    80.260  53.360  39.770
   C    79.770  53.350  38.300
   C    81.500  54.290  39.850
   N    79.260  53.830  40.770
   H    78.840  54.800  40.510
   C    78.200  52.880  41.230
   C    76.980  52.730  40.280
   C    77.660  53.370  42.610
   C    78.790  51.460  41.500
   C    82.200  46.870  39.410
   C    83.580  47.620  39.390
   C    83.470  48.990  38.650
   C    84.290  48.020  40.690
   O    85.500  48.210  40.740
   O    83.450  48.360  41.700
   C    84.040  49.100  42.810
   C    83.010  50.060  43.390
   C    82.610  49.830  44.870
   C    81.620  48.640  44.960
   C    81.750  51.070  45.300
   N    83.750  49.510  45.760
   O    84.090  50.560  46.670
   C    84.980  48.900  45.160
   C    86.130  49.910  44.860
   C    85.510  47.850  46.150
   C    84.640  48.160  43.840
   C    84.610  46.800  38.500
   C    85.170  45.360  38.800
   C    86.610  45.330  38.210
   C    85.420  45.100  40.310
   O    86.420  45.470  40.910
   O    84.450  44.310  40.880
   C    84.950  43.460  41.940
   C    84.780  44.090  43.330
   C    85.460  43.190  44.400
   C    86.940  43.630  44.500
   C    84.790  43.510  45.770
   N    85.450  41.750  43.990
   H    85.670  41.090  44.830
   C    84.290  41.280  43.180
   C    82.940  41.280  43.930
   C    84.530  39.830  42.680
   C    84.140  42.150  41.890
   C    84.320  44.190  38.170
   C    84.400  43.750  36.660
   C    84.110  44.900  35.700
   C    83.410  42.570  36.440
   O    83.210  41.690  37.270
   O    82.940  42.540  35.160
   C    82.340  41.310  34.680
   C    81.190  41.690  33.740
   C    80.610  40.480  32.970
   C    79.820  41.060  31.770
   C    79.590  39.760  33.890
   N    81.650  39.450  32.640
   O    81.300  38.690  31.470
   C    83.050  39.890  32.600
   C    83.400  40.900  31.480
   C    84.020  38.670  32.400
   C    83.420  40.480  33.990
   C    85.750  43.100  36.280
   H    75.820  44.300  36.870
   H    75.310  42.810  37.660
   H    75.190  44.320  38.530
   H    78.080  43.390  36.370
   H    77.530  41.850  37.030
   H    79.030  42.540  37.610
   H    75.340  41.540  41.080
   H    77.580  41.590  42.310
   H    77.030  42.950  43.190
   H    75.650  39.490  42.250
   H    75.780  38.910  43.920
   H    77.210  39.410  43.030
   H    77.820  41.050  44.900
   H    76.450  40.430  45.770
   H    76.630  42.180  45.530
   H    72.020  42.620  44.450
   H    72.170  43.790  43.140
   H    72.090  42.070  42.780
   H    75.570  43.890  44.620
   H    74.190  43.440  45.630
   H    74.020  44.720  44.440
   H    74.840  44.280  42.220
   H    73.760  43.200  41.410
   H    77.420  45.660  37.970
   H    77.360  45.270  39.650
   H    81.050  44.390  39.960
   H    79.830  43.220  39.510
   H    79.520  44.360  40.830
   H    81.000  45.790  35.260
   H    80.000  44.870  33.460
   H    78.780  44.400  34.600
   H    78.460  44.700  31.560
   H    77.270  44.140  32.710
   H    76.890  45.470  31.610
   H    76.160  46.830  33.600
   H    77.180  47.000  35.030
   H    76.530  45.460  34.620
   H    82.080  47.930  33.440
   H    81.400  46.450  32.790
   H    81.410  47.920  31.830
   H    79.850  49.840  32.300
   H    78.820  49.840  33.720
   H    80.560  49.970  33.910
   H    79.020  48.050  35.440
   H    80.740  48.060  35.460
   H    78.700  46.950  39.990
   H    79.260  47.340  38.440
   H    81.060  46.110  41.760
   H    81.310  47.830  42.090
   H    79.710  47.220  41.870
   H    79.010  50.850  39.450
   H    81.450  51.590  39.350
   H    81.390  51.990  41.040
   H    79.480  54.340  37.950
   H    78.920  52.680  38.120
   H    80.580  53.040  37.640
   H    81.910  54.360  40.850
   H    82.300  53.910  39.210
   H    81.290  55.300  39.500
   H    76.250  52.040  40.710
   H    77.250  52.330  39.300
   H    76.470  53.680  40.110
   H    78.470  53.520  43.330
   H    77.130  54.320  42.520
   H    76.960  52.650  43.020
   H    77.990  50.750  41.720
   H    79.400  51.480  42.400
   H    81.990  46.610  38.370
   H    82.410  45.920  39.910
   H    82.960  48.900  37.690
   H    84.460  49.380  38.420
   H    82.990  49.750  39.260
   H    84.840  49.720  42.400
   H    82.120  50.100  42.760
   H    83.460  51.060  43.320
   H    80.750  48.810  44.320
   H    81.250  48.530  45.980
   H    82.060  47.690  44.670
   H    81.370  50.960  46.310
   H    82.330  52.000  45.260
   H    80.880  51.190  44.650
   H    86.930  49.410  44.300
   H    85.780  50.760  44.270
   H    86.570  50.280  45.780
   H    84.750  47.110  46.390
   H    86.360  47.310  45.730
   H    85.830  48.300  47.090
   H    83.980  47.310  44.010
   H    85.530  47.700  43.420
   H    84.170  46.790  37.500
   H    85.490  47.440  38.390
   H    86.620  45.630  37.160
   H    87.080  44.350  38.330
   H    87.270  46.050  38.700
   H    85.990  43.210  41.760
   H    83.720  44.240  43.520
   H    85.210  45.100  43.320
   H    87.010  44.690  44.740
   H    87.470  43.460  43.560
   H    87.470  43.090  45.280
   H    84.810  44.580  45.950
   H    85.310  43.040  46.610
   H    83.760  43.180  45.790
   H    83.000  40.700  44.850
   H    82.160  40.820  43.330
   H    82.610  42.290  44.170
   H    85.480  39.730  42.150
   H    83.750  39.530  41.990
   H    84.540  39.100  43.480
   H    83.090  42.370  41.710
   H    84.470  41.600  41.010
   H    84.560  43.290  38.740
   H    83.280  44.390  38.420
   H    84.870  45.680  35.760
   H    84.070  44.570  34.660
   H    83.150  45.380  35.900
   H    81.910  40.770  35.530
   H    81.570  42.460  33.070
   H    80.410  42.190  34.310
   H    80.470  41.530  31.030
   H    79.130  41.830  32.110
   H    79.210  40.300  31.270
   H    79.090  38.960  33.360
   H    80.090  39.340  34.770
   H    78.830  40.460  34.250
   H    84.460  41.150  31.500
   H    83.160  40.500  30.490
   H    82.850  41.840  31.570
   H    85.050  38.990  32.530
   H    83.940  38.250  31.400
   H    83.830  37.880  33.110
   H    84.330  41.080  33.910
   H    83.650  39.670  34.680
   H    86.120  42.440  37.060
   H    85.670  42.470  35.390
   H    86.530  43.830  36.060
  