239
PTMA_CHAIN6_time5
 C    80.680  44.980  38.770
   C    82.010  44.550  39.310
   C    82.310  43.210  38.490
   C    81.770  44.150  40.760
   O    81.600  42.970  41.050
   O    82.040  45.180  41.650
   C    81.920  44.990  43.040
   C    82.870  43.930  43.580
   C    82.510  43.660  45.040
   C    81.190  42.870  45.280
   C    83.520  42.790  45.740
   N    82.350  44.920  45.770
   H    82.550  44.810  46.840
   C    81.810  46.210  45.220
   C    80.280  46.300  45.400
   C    82.410  47.430  45.980
   C    82.310  46.290  43.720
   C    83.060  45.680  39.010
   C    84.580  45.600  39.540
   C    85.010  44.200  40.030
   C    85.580  46.040  38.340
   O    86.750  45.680  38.360
   O    85.020  46.510  37.240
   C    85.790  46.640  36.030
   C    85.320  45.710  34.900
   C    86.050  45.940  33.550
   C    87.320  45.030  33.490
   C    85.130  45.540  32.350
   N    86.480  47.380  33.320
   O    86.890  47.710  32.210
   C    86.390  48.510  34.300
   C    87.850  49.020  34.650
   C    85.610  49.680  33.630
   C    85.640  48.140  35.640
   C    84.680  46.460  40.900
   C    85.820  47.510  41.220
   C    85.480  47.920  42.720
   C    85.600  48.780  40.270
   O    84.770  48.770  39.350
   O    86.190  49.910  40.670
   C    86.040  51.130  39.940
   C    87.200  51.150  38.930
   C    87.230  52.430  38.150
   C    86.180  52.480  37.080
   C    88.560  52.480  37.420
   N    87.140  53.570  39.070
   H    87.840  54.400  38.930
   C    86.130  53.580  40.240
   C    84.700  53.970  39.860
   C    86.680  54.670  41.250
   C    86.140  52.260  40.890
   C    87.240  46.900  41.440
   C    88.590  47.640  41.890
   C    88.890  48.860  40.940
   C    88.740  48.060  43.350
   O    89.570  48.880  43.680
   O    87.840  47.520  44.210
   C    87.990  47.680  45.610
   C    87.390  49.030  45.990
   C    87.420  49.340  47.470
   C    86.110  50.000  47.840
   C    88.510  50.380  47.860
   N    87.510  48.060  48.340
   O    87.610  48.270  49.530
   C    87.470  46.620  47.840
   C    88.790  45.990  48.250
   C    86.400  45.830  48.620
   C    87.310  46.480  46.330
   C    89.850  46.670  41.610
   C    89.910  45.140  42.020
   C    91.470  44.840  42.020
   C    89.470  44.800  43.440
   O    89.820  45.460  44.410
   O    88.870  43.650  43.600
   C    88.830  43.040  44.910
   C    87.680  42.100  45.080
   C    87.760  41.150  46.340
   C    86.610  41.620  47.250
   C    87.630  39.680  45.980
   N    88.960  41.430  47.130
   H    88.980  41.100  48.170
   C    90.270  41.740  46.520
   C    91.100  40.470  46.560
   C    90.920  42.890  47.290
   C    90.110  42.200  45.080
   C    89.160  44.380  40.890
   C    89.600  43.000  40.320
   C    90.490  43.250  39.090
   C    88.310  42.280  39.880
   O    87.560  41.860  40.760
   O    88.190  42.030  38.530
   C    87.430  40.870  38.130
   C    86.050  41.320  37.670
   C    85.510  40.550  36.460
   C    85.790  41.340  35.160
   C    83.950  40.450  36.540
   N    86.090  39.180  36.360
   O    85.340  38.220  36.020
   C    87.570  39.010  36.550
   C    88.150  38.640  35.170
   C    87.850  37.920  37.520
   C    88.250  40.320  36.990
   C    90.330  42.020  41.250
   H    80.590  45.110  37.690
   H    79.940  44.260  39.110
   H    80.470  45.960  39.200
   H    82.330  43.490  37.440
   H    81.740  42.300  38.690
   H    83.350  42.900  38.660
   H    80.880  44.750  43.260
   H    82.930  42.990  43.030
   H    83.880  44.350  43.570
   H    80.920  42.700  46.320
   H    81.210  41.850  44.890
   H    80.390  43.410  44.780
   H    84.520  42.850  45.290
   H    83.210  41.750  45.780
   H    83.650  43.050  46.790
   H    79.890  47.080  44.740
   H    79.760  45.370  45.160
   H    79.950  46.470  46.420
   H    82.090  48.420  45.680
   H    83.500  47.480  45.870
   H    82.220  47.300  47.050
   H    83.380  46.490  43.760
   H    81.820  47.140  43.250
   H    82.980  45.730  37.920
   H    82.730  46.700  39.190
   H    85.860  44.320  40.700
   H    85.330  43.480  39.270
   H    84.250  43.760  40.670
   H    86.840  46.410  36.270
   H    85.500  44.730  35.330
   H    84.240  45.780  34.780
   H    87.870  45.160  32.560
   H    88.070  45.380  34.200
   H    87.230  43.960  33.670
   H    85.730  45.610  31.440
   H    84.320  46.250  32.210
   H    84.700  44.540  32.380
   H    87.820  49.810  35.410
   H    88.380  48.180  35.100
   H    88.330  49.440  33.770
   H    85.320  50.410  34.380
   H    86.120  50.200  32.820
   H    84.710  49.340  33.120
   H    84.570  48.330  35.480
   H    85.920  48.730  36.510
   H    84.510  45.840  41.780
   H    83.740  47.020  40.940
   H    84.480  48.300  42.930
   H    85.550  47.050  43.360
   H    86.050  48.760  43.120
   H    85.150  51.140  39.310
   H    87.130  50.300  38.250
   H    88.100  51.030  39.520
   H    86.430  51.690  36.360
   H    86.040  53.410  36.530
   H    85.190  52.230  37.470
   H    89.370  52.510  38.160
   H    88.620  51.650  36.720
   H    88.640  53.390  36.840
   H    84.150  53.370  39.130
   H    84.770  54.990  39.490
   H    84.090  54.020  40.760
   H    86.760  55.610  40.710
   H    85.920  54.920  41.990
   H    87.590  54.380  41.790
   H    85.380  52.120  41.660
   H    87.110  52.220  41.380
   H    87.460  46.400  40.500
   H    87.130  46.110  42.180
   H    88.590  48.540  39.950
   H    89.960  49.040  40.930
   H    88.380  49.760  41.300
   H    89.070  47.650  45.800
   H    86.340  48.810  45.760
   H    87.720  49.890  45.410
   H    86.100  50.280  48.900
   H    85.310  49.260  47.850
   H    85.880  50.920  47.300
   H    88.460  51.280  47.250
   H    88.450  50.680  48.910
   H    89.530  50.060  47.670
   H    88.750  44.920  48.050
   H    89.680  46.370  47.750
   H    89.020  46.120  49.310
   H    86.380  45.980  49.700
   H    85.380  46.090  48.310
   H    86.550  44.750  48.570
   H    86.230  46.500  46.190
   H    87.530  45.470  45.990
   H    90.200  46.640  40.580
   H    90.670  47.210  42.080
   H    91.750  43.840  42.340
   H    91.980  45.350  42.830
   H    91.960  45.020  41.070
   H    88.770  43.800  45.700
   H    87.570  41.560  44.140
   H    86.770  42.700  45.110
   H    85.650  41.440  46.770
   H    86.590  42.650  47.620
   H    86.490  41.020  48.150
   H    86.580  39.400  45.970
   H    88.060  39.020  46.720
   H    88.100  39.570  45.010
   H    91.620  40.110  47.450
   H    91.820  40.430  45.750
   H    90.450  39.620  46.350
   H    90.660  43.870  46.890
   H    92.000  42.820  47.270
   H    90.670  42.790  48.350
   H    90.050  41.300  44.470
   H    90.980  42.810  44.810
   H    88.090  44.380  41.130
   H    89.100  44.960  39.970
   H    90.560  42.290  38.590
   H    90.060  43.950  38.370
   H    91.510  43.500  39.360
   H    87.390  40.120  38.920
   H    86.110  42.400  37.530
   H    85.350  41.210  38.510
   H    85.620  40.730  34.280
   H    86.800  41.740  35.060
   H    85.150  42.210  35.010
   H    83.560  39.860  35.710
   H    83.530  40.000  37.440
   H    83.560  41.470  36.540
   H    89.090  38.100  35.300
   H    87.590  37.920  34.560
   H    88.180  39.470  34.460
   H    88.890  37.970  37.870
   H    87.700  36.990  36.970
   H    87.170  37.940  38.370
   H    88.300  41.100  36.240
   H    89.320  40.120  37.120
   H    91.400  42.180  41.070
   H    90.050  42.120  42.290
   H    90.040  40.990  41.030
  