239
PTMA_CHAIN6_time0point05
 C    75.870  43.890  37.710
   C    77.220  43.610  38.340
   C    77.940  42.840  37.180
   C    77.090  42.640  39.530
   O    77.430  41.470  39.410
   O    76.420  43.170  40.590
   C    75.800  42.410  41.650
   C    76.760  42.030  42.740
   C    76.040  41.080  43.690
   C    75.980  39.570  43.250
   C    76.780  41.050  45.100
   N    74.610  41.480  43.840
   H    74.150  41.000  44.700
   C    74.170  42.850  43.550
   C    72.650  42.700  43.430
   C    74.430  43.840  44.830
   C    74.720  43.370  42.190
   C    77.850  45.020  38.750
   C    79.400  45.310  38.940
   C    79.840  44.260  39.960
   C    80.110  45.130  37.590
   O    81.120  44.400  37.450
   O    79.480  45.900  36.620
   C    79.960  45.930  35.280
   C    79.160  45.080  34.230
   C    78.110  45.950  33.390
   C    77.560  45.070  32.260
   C    76.950  46.530  34.110
   N    78.910  47.100  32.720
   O    78.770  47.330  31.580
   C    80.060  47.770  33.500
   C    81.500  47.570  32.880
   C    79.730  49.280  33.220
   C    79.980  47.430  34.950
   C    79.570  46.820  39.470
   C    80.880  47.460  40.080
   C    80.730  47.210  41.590
   C    80.780  48.930  39.730
   O    80.640  49.230  38.520
   O    80.370  49.680  40.770
   C    79.830  51.010  40.490
   C    80.900  52.070  40.360
   C    80.340  53.370  39.890
   C    79.970  53.400  38.370
   C    81.400  54.450  40.010
   N    79.260  53.750  40.800
   H    78.880  54.750  40.600
   C    78.220  52.820  41.220
   C    76.910  52.760  40.340
   C    77.690  53.470  42.500
   C    78.850  51.450  41.540
   C    82.250  46.910  39.460
   C    83.660  47.650  39.380
   C    83.600  48.800  38.360
   C    84.420  48.280  40.560
   O    85.620  48.630  40.480
   O    83.630  48.340  41.610
   C    83.940  49.020  42.770
   C    82.770  49.920  43.220
   C    82.560  49.990  44.690
   C    81.710  48.820  45.280
   C    81.770  51.290  45.090
   N    83.930  49.930  45.480
   O    84.100  50.700  46.370
   C    85.120  49.010  45.020
   C    86.430  49.870  44.710
   C    85.350  48.170  46.350
   C    84.590  48.210  43.910
   C    84.730  46.690  38.500
   C    85.280  45.260  38.820
   C    86.680  45.250  38.270
   C    85.460  45.000  40.330
   O    86.390  45.440  41.020
   O    84.550  44.120  40.790
   C    84.840  43.390  41.960
   C    84.690  44.090  43.360
   C    85.450  43.200  44.350
   C    86.950  43.500  44.360
   C    85.050  43.370  45.850
   N    85.340  41.780  43.970
   H    85.850  41.060  44.610
   C    84.140  41.290  43.280
   C    82.750  41.180  44.080
   C    84.570  39.930  42.780
   C    83.930  42.240  42.070
   C    84.380  44.170  38.130
   C    84.410  43.730  36.630
   C    83.960  44.900  35.710
   C    83.450  42.530  36.460
   O    83.450  41.660  37.360
   O    83.060  42.420  35.200
   C    82.650  41.260  34.580
   C    81.580  41.760  33.570
   C    80.890  40.750  32.900
   C    79.960  41.200  31.720
   C    79.910  39.960  33.900
   N    81.830  39.590  32.410
   O    81.360  38.680  31.870
   C    83.380  39.830  32.520
   C    83.990  40.640  31.190
   C    83.970  38.390  32.510
   C    83.810  40.550  33.750
   C    85.800  43.270  36.080
   H    75.930  44.470  36.790
   H    75.410  42.920  37.500
   H    75.250  44.380  38.460
   H    77.860  43.430  36.270
   H    77.450  41.890  36.970
   H    78.980  42.630  37.440
   H    75.250  41.550  41.270
   H    77.690  41.600  42.350
   H    76.990  42.910  43.330
   H    75.200  39.530  42.490
   H    75.650  39.010  44.130
   H    76.900  39.200  42.800
   H    77.830  40.780  45.020
   H    76.430  40.310  45.810
   H    76.810  41.980  45.670
   H    72.350  42.210  44.360
   H    72.210  43.700  43.360
   H    72.380  42.040  42.600
   H    75.480  44.120  44.950
   H    74.050  43.350  45.720
   H    73.770  44.690  44.660
   H    75.100  44.360  42.430
   H    73.950  43.580  41.440
   H    77.430  45.800  38.120
   H    77.330  45.160  39.690
   H    80.910  44.390  40.110
   H    79.650  43.340  39.420
   H    79.300  44.270  40.910
   H    80.970  45.570  35.440
   H    79.890  44.520  33.650
   H    78.540  44.320  34.700
   H    78.280  44.830  31.470
   H    77.140  44.160  32.680
   H    76.760  45.610  31.740
   H    76.390  47.310  33.590
   H    77.220  47.030  35.050
   H    76.240  45.770  34.420
   H    82.080  48.470  33.090
   H    81.990  46.750  33.400
   H    81.560  47.390  31.810
   H    80.050  49.650  32.250
   H    78.680  49.560  33.310
   H    80.310  49.810  33.980
   H    79.220  47.880  35.590
   H    80.830  47.970  35.360
   H    78.750  46.950  40.180
   H    79.200  47.430  38.640
   H    80.520  46.160  41.820
   H    81.530  47.580  42.230
   H    79.870  47.740  42.010
   H    79.300  50.970  39.540
   H    81.620  51.840  39.580
   H    81.460  52.180  41.290
   H    79.420  54.280  38.060
   H    79.370  52.580  37.980
   H    80.820  53.320  37.700
   H    82.010  54.530  40.910
   H    82.140  54.330  39.210
   H    81.020  55.460  39.830
   H    76.030  52.410  40.880
   H    77.040  52.050  39.530
   H    76.650  53.700  39.860
   H    78.470  53.860  43.150
   H    77.070  54.310  42.180
   H    77.030  52.730  42.960
   H    78.100  50.680  41.730
   H    79.480  51.420  42.430
   H    82.060  46.680  38.410
   H    82.410  45.920  39.890
   H    82.990  48.580  37.480
   H    84.580  49.130  38.000
   H    83.120  49.630  38.880
   H    84.680  49.740  42.430
   H    81.800  49.680  42.770
   H    82.960  50.930  42.880
   H    80.640  49.000  45.190
   H    81.840  48.650  46.340
   H    81.950  47.850  44.840
   H    81.340  51.170  46.090
   H    82.440  52.150  45.090
   H    80.980  51.390  44.360
   H    87.080  49.230  44.110
   H    86.210  50.840  44.250
   H    86.940  50.030  45.660
   H    84.420  47.650  46.560
   H    86.140  47.430  46.220
   H    85.580  48.770  47.240
   H    83.950  47.350  44.090
   H    85.430  47.760  43.380
   H    84.360  46.590  37.480
   H    85.620  47.280  38.310
   H    86.730  45.710  37.280
   H    87.140  44.260  38.300
   H    87.340  45.950  38.790
   H    85.890  43.180  41.790
   H    83.660  44.150  43.710
   H    85.010  45.130  43.280
   H    87.130  44.550  44.570
   H    87.410  43.200  43.420
   H    87.400  42.920  45.170
   H    85.520  44.250  46.280
   H    85.250  42.500  46.470
   H    83.990  43.600  45.730
   H    82.870  40.490  44.910
   H    82.030  40.660  43.440
   H    82.270  42.080  44.460
   H    85.270  39.920  41.950
   H    83.690  39.370  42.460
   H    85.050  39.320  43.550
   H    82.920  42.650  42.170
   H    84.000  41.640  41.170
   H    84.600  43.250  38.670
   H    83.350  44.460  38.360
   H    84.760  45.640  35.610
   H    83.760  44.580  34.690
   H    83.090  45.500  35.980
   H    82.180  40.510  35.220
   H    82.010  42.450  32.840
   H    80.970  42.350  34.250
   H    80.500  41.590  30.870
   H    79.310  41.990  32.110
   H    79.300  40.410  31.380
   H    79.410  39.120  33.420
   H    80.520  39.500  34.680
   H    79.170  40.620  34.340
   H    85.080  40.600  31.180
   H    83.650  40.240  30.240
   H    83.660  41.680  31.180
   H    85.040  38.530  32.380
   H    83.610  37.710  31.740
   H    83.750  37.880  33.450
   H    84.670  41.180  33.580
   H    84.250  39.920  34.520
   H    86.310  42.600  36.770
   H    85.670  42.650  35.190
   H    86.530  44.030  35.840
  