239
PTMA_CHAIN1_time0point05
 C    92.520  25.390  77.000
   C    92.510  26.690  76.120
   C    91.110  27.230  76.220
   C    92.860  26.290  74.700
   O    92.160  26.590  73.720
   O    93.970  25.520  74.660
   C    94.350  24.830  73.510
   C    94.630  25.590  72.210
   C    94.810  24.580  71.040
   C    93.400  24.170  70.540
   C    95.760  25.070  69.820
   N    95.280  23.320  71.600
   H    95.590  22.620  70.830
   C    96.190  23.210  72.790
   C    96.130  21.730  73.190
   C    97.680  23.540  72.610
   C    95.610  24.070  73.910
   C    93.590  27.670  76.800
   C    93.690  29.230  76.480
   C    93.770  29.400  74.950
   C    92.570  29.980  77.160
   O    91.840  30.720  76.540
   O    92.480  29.670  78.400
   C    91.470  30.200  79.240
   C    90.320  29.160  79.540
   C    90.200  28.520  80.920
   C    88.750  27.930  81.120
   C    91.070  27.330  81.280
   N    90.450  29.450  82.130
   O    90.200  29.140  83.180
   C    91.370  30.710  81.830
   C    90.580  32.080  81.760
   C    92.290  30.750  83.080
   C    92.170  30.550  80.610
   C    95.080  29.680  77.130
   C    95.760  31.200  76.890
   C    96.670  30.870  75.680
   C    96.480  31.410  78.180
   O    95.760  31.370  79.220
   O    97.880  31.330  78.160
   C    98.580  31.060  79.310
   C    98.920  32.350  79.980
   C    99.590  32.160  81.280
   C    98.720  31.710  82.520
   C    100.140  33.520  81.760
   N    100.680  31.260  81.000
   H    101.470  31.270  81.750
   C    100.500  29.950  80.410
   C    99.990  28.760  81.300
   C    101.900  29.500  80.010
   C    99.740  30.110  79.090
   C    94.810  32.400  76.650
   C    94.950  33.980  76.990
   C    94.990  34.230  78.600
   C    96.100  34.730  76.240
   O    96.010  35.930  76.030
   O    97.220  34.000  76.030
   C    98.420  34.560  75.600
   C    99.580  33.560  75.960
   C    100.600  33.220  74.950
   C    100.310  31.990  74.040
   C    101.970  33.040  75.660
   N    100.800  34.380  73.870
   O    101.870  34.620  73.460
   C    99.600  35.350  73.600
   C    99.970  36.910  73.860
   C    99.650  35.330  72.070
   C    98.370  34.790  74.070
   C    93.490  34.620  76.640
   C    92.760  34.830  75.270
   C    92.110  36.190  75.310
   C    93.690  34.880  74.000
   O    94.160  35.940  73.600
   O    93.730  33.750  73.270
   C    93.920  33.930  71.920
   C    95.380  34.070  71.510
   C    95.460  34.360  70.050
   C    95.380  35.880  69.800
   C    96.880  33.870  69.450
   N    94.280  33.830  69.270
   H    94.280  34.020  68.200
   C    93.640  32.580  69.700
   C    94.540  31.330  69.390
   C    92.420  32.510  68.800
   C    93.330  32.710  71.220
   C    91.630  33.730  75.040
   C    90.260  33.640  75.730
   C    90.470  33.640  77.260
   C    89.420  32.400  75.280
   O    89.530  32.000  74.120
   O    88.540  32.030  76.190
   C    87.490  31.140  75.860
   C    87.400  30.140  76.970
   C    86.260  29.220  76.810
   C    85.860  28.370  78.040
   C    86.430  28.140  75.640
   N    84.960  29.940  76.330
   O    84.090  29.330  75.920
   C    84.930  31.530  76.250
   C    84.620  32.110  77.630
   C    83.770  31.830  75.200
   C    86.210  32.030  75.670
   C    89.380  34.870  75.370
   H    92.290  25.520  78.060
   H    91.800  24.620  76.730
   H    93.460  24.860  77.000
   H    90.880  27.290  77.290
   H    90.440  26.460  75.830
   H    90.940  28.150  75.670
   H    93.540  24.110  73.430
   H    93.880  26.340  71.970
   H    95.560  26.110  72.440
   H    92.790  23.830  71.380
   H    93.490  23.300  69.880
   H    92.820  24.930  70.030
   H    95.170  25.810  69.270
   H    95.950  24.210  69.180
   H    96.670  25.510  70.220
   H    96.100  21.000  72.380
   H    96.990  21.410  73.780
   H    95.270  21.360  73.760
   H    97.880  24.600  72.450
   H    98.130  23.000  71.770
   H    98.230  23.250  73.500
   H    96.350  24.800  74.250
   H    95.350  23.550  74.830
   H    93.520  27.630  77.880
   H    94.590  27.300  76.550
   H    93.860  30.420  74.590
   H    92.850  29.060  74.480
   H    94.570  28.750  74.590
   H    91.080  31.130  78.830
   H    89.470  29.720  79.160
   H    90.310  28.340  78.830
   H    88.030  28.710  80.850
   H    88.590  27.080  80.460
   H    88.500  27.620  82.140
   H    90.840  26.900  82.250
   H    92.130  27.530  81.410
   H    90.940  26.490  80.590
   H    91.340  32.860  81.710
   H    90.050  32.120  80.810
   H    89.850  32.330  82.530
   H    91.970  30.700  84.120
   H    93.000  29.920  83.090
   H    92.950  31.610  83.100
   H    92.920  29.780  80.790
   H    92.810  31.410  80.440
   H    95.820  28.920  76.880
   H    94.980  29.410  78.180
   H    96.270  30.370  74.800
   H    97.140  31.750  75.240
   H    97.520  30.250  75.970
   H    97.910  30.470  79.930
   H    98.080  32.990  80.260
   H    99.560  32.990  79.370
   H    99.320  31.490  83.400
   H    98.220  30.800  82.200
   H    97.960  32.440  82.820
   H    100.840  33.970  81.050
   H    99.420  34.250  82.130
   H    100.720  33.160  82.610
   H    100.340  27.810  80.910
   H    98.910  28.690  81.410
   H    100.470  28.810  82.280
   H    102.240  30.270  79.320
   H    102.570  29.510  80.870
   H    101.990  28.550  79.480
   H    99.480  29.150  78.640
   H    100.300  30.690  78.360
   H    93.950  32.040  77.230
   H    94.520  32.340  75.600
   H    94.240  33.700  79.180
   H    94.790  35.290  78.780
   H    95.990  33.960  78.930
   H    98.630  35.480  76.140
   H    99.130  32.610  76.270
   H    99.990  33.860  76.920
   H    100.360  31.020  74.530
   H    100.950  31.900  73.160
   H    99.330  32.140  73.590
   H    102.640  32.640  74.900
   H    102.360  34.010  75.990
   H    101.810  32.260  76.400
   H    99.360  37.640  73.350
   H    99.740  37.040  74.920
   H    100.990  37.270  73.720
   H    99.780  34.360  71.590
   H    98.720  35.810  71.770
   H    100.470  35.980  71.750
   H    97.950  33.880  73.660
   H    97.540  35.480  73.890
   H    92.820  34.240  77.410
   H    93.650  35.660  76.930
   H    91.580  36.440  76.230
   H    91.340  36.380  74.570
   H    92.850  36.980  75.240
   H    93.340  34.820  71.670
   H    95.780  33.090  71.750
   H    95.930  34.780  72.140
   H    96.020  36.470  70.450
   H    94.360  36.270  69.850
   H    95.730  36.050  68.780
   H    97.740  34.160  70.050
   H    97.120  34.150  68.420
   H    96.880  32.780  69.470
   H    95.100  31.490  68.470
   H    93.940  30.450  69.170
   H    95.240  31.020  70.170
   H    91.830  33.400  69.050
   H    91.860  31.600  69.030
   H    92.770  32.520  67.770
   H    93.810  31.890  71.750
   H    92.250  32.650  71.370
   H    91.330  33.900  74.010
   H    92.170  32.780  75.090
   H    90.780  34.590  77.690
   H    89.550  33.350  77.760
   H    91.130  32.820  77.550
   H    87.740  30.610  74.940
   H    87.340  30.660  77.930
   H    88.400  29.700  77.000
   H    85.530  29.030  78.840
   H    86.710  27.810  78.450
   H    85.040  27.660  77.920
   H    85.670  27.360  75.580
   H    86.430  28.580  74.640
   H    87.340  27.560  75.710
   H    84.120  33.080  77.630
   H    84.070  31.530  78.370
   H    85.560  32.300  78.150
   H    83.740  32.920  75.120
   H    82.840  31.540  75.690
   H    83.860  31.380  74.220
   H    86.360  33.050  76.020
   H    86.270  32.100  74.590
   H    89.390  35.150  74.320
   H    88.320  34.650  75.510
   H    89.520  35.760  75.980
  