239
PTMA_CHAIN3_time8
 C    84.840  49.780  57.940
   C    86.050  50.800  57.910
   C    87.210  49.950  57.430
   C    86.300  51.330  59.350
   O    87.440  51.410  59.840
   O    85.190  51.650  59.960
   C    85.140  51.890  61.390
   C    85.240  53.330  61.610
   C    85.070  53.750  63.090
   C    86.460  54.040  63.770
   C    84.200  54.940  63.190
   N    84.460  52.650  63.890
   H    84.590  52.680  64.970
   C    83.570  51.560  63.370
   C    83.800  50.300  64.180
   C    82.060  52.020  63.620
   C    83.740  51.380  61.870
   C    85.820  51.980  56.870
   C    86.540  53.410  56.830
   C    86.230  54.200  58.080
   C    87.990  53.090  56.590
   O    88.870  53.430  57.410
   O    88.210  52.730  55.370
   C    89.530  52.440  54.820
   C    89.850  51.030  55.020
   C    91.200  50.670  54.410
   C    92.370  51.000  55.350
   C    91.200  49.200  54.050
   N    91.430  51.370  53.120
   H    92.180  50.970  52.430
   C    90.690  52.560  52.620
   C    91.630  53.790  52.530
   C    90.370  52.190  51.200
   C    89.400  52.860  53.350
   C    85.970  54.250  55.590
   C    86.320  55.780  55.230
   C    85.280  56.690  56.030
   C    86.080  55.780  53.710
   O    86.920  55.300  52.940
   O    85.000  56.380  53.390
   C    84.430  56.510  52.060
   C    84.950  57.780  51.490
   C    84.250  57.980  50.160
   C    84.690  57.040  49.080
   C    84.380  59.480  49.710
   N    82.760  57.720  50.190
   H    82.220  58.100  49.330
   C    82.080  56.810  51.150
   C    81.780  55.440  50.530
   C    80.820  57.540  51.450
   C    82.910  56.670  52.390
   C    87.830  56.090  55.540
   C    88.540  57.470  55.230
   C    88.230  57.870  53.820
   C    88.040  58.530  56.240
   O    88.200  59.770  56.080
   O    87.660  58.020  57.420
   C    87.390  58.840  58.540
   C    85.970  59.380  58.450
   C    85.550  60.120  59.690
   C    84.060  60.150  59.700
   C    86.040  61.560  59.790
   N    86.050  59.440  60.910
   H    85.480  59.770  61.790
   C    87.270  58.590  61.010
   C    88.420  59.500  61.500
   C    86.900  57.570  62.060
   C    87.650  57.990  59.710
   C    90.110  57.260  55.370
   C    91.170  58.450  55.520
   C    91.020  59.480  54.360
   C    91.080  59.130  56.930
   O    90.680  58.550  57.900
   O    91.430  60.500  56.980
   C    91.180  61.330  58.180
   C    92.500  61.460  58.990
   C    92.430  62.160  60.200
   C    92.060  61.190  61.310
   C    93.700  63.000  60.600
   N    91.280  63.150  60.170
   H    90.950  63.570  61.120
   C    90.500  63.520  58.990
   C    90.740  65.020  58.760
   C    89.040  63.360  59.250
   C    90.810  62.770  57.750
   C    92.610  57.800  55.470
   C    93.290  57.020  56.580
   C    94.650  56.440  56.100
   C    92.450  55.810  57.050
   O    91.920  55.010  56.330
   O    92.440  55.760  58.330
   C    91.770  54.760  59.070
   C    92.790  53.720  59.560
   C    92.150  52.630  60.460
   C    93.340  51.890  61.090
   C    91.360  51.560  59.700
   N    91.210  53.200  61.530
   O    90.990  52.560  62.550
   C    90.530  54.560  61.290
   C    90.260  55.150  62.710
   C    89.080  54.190  60.870
   C    91.320  55.470  60.350
   C    93.770  57.960  57.750
   H    85.150  48.830  58.370
   H    83.950  50.110  58.480
   H    84.490  49.540  56.940
   H    88.190  50.390  57.580
   H    87.170  49.750  56.360
   H    87.210  48.940  57.830
   H    85.960  51.490  61.990
   H    86.150  53.750  61.180
   H    84.440  53.800  61.040
   H    86.900  53.060  64.000
   H    86.330  54.630  64.680
   H    87.010  54.590  63.000
   H    83.140  54.850  62.960
   H    84.700  55.700  62.580
   H    84.060  55.330  64.200
   H    83.870  50.440  65.260
   H    82.930  49.660  64.050
   H    84.660  49.690  63.920
   H    81.880  52.350  64.640
   H    81.390  51.160  63.550
   H    81.560  52.710  62.950
   H    82.970  51.960  61.360
   H    83.550  50.330  61.680
   H    85.980  51.510  55.900
   H    84.760  52.210  57.040
   H    86.730  53.750  58.940
   H    85.160  54.210  58.300
   H    86.620  55.220  58.100
   H    90.240  53.080  55.340
   H    89.780  50.810  56.080
   H    89.200  50.280  54.550
   H    92.360  50.440  56.290
   H    93.300  50.720  54.860
   H    92.490  52.070  55.530
   H    90.580  49.040  53.160
   H    90.720  48.640  54.850
   H    92.190  48.830  53.780
   H    91.240  54.700  52.090
   H    91.960  54.050  53.540
   H    92.550  53.570  51.980
   H    89.740  51.330  50.990
   H    89.890  53.020  50.690
   H    91.240  51.960  50.590
   H    88.540  52.330  52.940
   H    89.260  53.930  53.190
   H    84.890  54.210  55.710
   H    86.040  53.610  54.710
   H    84.240  56.560  55.750
   H    85.360  56.730  57.120
   H    85.550  57.720  55.800
   H    84.690  55.610  51.500
   H    86.030  57.710  51.470
   H    84.800  58.630  52.160
   H    85.740  56.740  49.150
   H    84.530  57.380  48.050
   H    84.290  56.030  48.970
   H    85.260  59.930  50.180
   H    84.510  59.380  48.630
   H    83.490  60.090  49.860
   H    82.710  54.890  50.350
   H    81.250  55.690  49.610
   H    81.170  54.940  51.280
   H    80.990  58.570  51.740
   H    80.120  57.640  50.620
   H    80.260  57.090  52.270
   H    82.650  55.820  53.030
   H    82.720  57.540  53.010
   H    88.320  55.390  54.870
   H    88.010  55.740  56.550
   H    88.560  58.850  53.480
   H    87.140  57.960  53.850
   H    88.570  57.090  53.140
   H    88.090  59.660  58.640
   H    85.290  58.550  58.270
   H    85.910  60.100  57.640
   H    83.790  60.500  58.710
   H    83.750  60.900  60.430
   H    83.590  59.200  59.960
   H    86.780  61.810  60.560
   H    86.370  61.970  58.840
   H    85.210  62.210  60.070
   H    88.010  60.270  62.160
   H    89.190  58.970  62.060
   H    88.850  60.030  60.660
   H    86.570  58.080  62.970
   H    86.140  56.890  61.680
   H    87.870  57.090  62.230
   H    87.180  57.010  59.550
   H    88.730  57.830  59.790
   H    90.160  56.620  56.260
   H    90.510  56.690  54.530
   H    91.840  60.200  54.390
   H    90.100  60.060  54.440
   H    91.050  59.010  53.380
   H    90.410  60.920  58.830
   H    93.350  61.800  58.400
   H    92.830  60.440  59.160
   H    91.660  61.760  62.150
   H    92.930  60.570  61.530
   H    91.400  60.450  60.870
   H    94.130  62.560  61.500
   H    93.360  64.020  60.760
   H    94.390  63.030  59.760
   H    90.630  65.520  59.720
   H    90.160  65.440  57.940
   H    91.820  65.040  58.580
   H    88.760  62.320  59.420
   H    88.450  63.800  58.440
   H    88.820  63.920  60.160
   H    91.620  63.170  57.140
   H    90.040  62.760  56.980
   H    92.600  57.070  54.660
   H    93.240  58.640  55.170
   H    95.180  57.360  55.850
   H    95.140  55.760  56.800
   H    94.590  55.770  55.240
   H    90.840  54.440  58.580
   H    93.630  54.130  60.110
   H    93.320  53.370  58.670
   H    94.010  51.570  60.290
   H    93.080  50.930  61.540
   H    93.850  52.480  61.860
   H    90.620  52.010  59.050
   H    92.050  50.930  59.150
   H    90.970  50.900  60.480
   H    89.650  56.050  62.630
   H    89.650  54.550  63.370
   H    91.250  55.350  63.110
   H    88.720  53.410  61.540
   H    89.050  53.770  59.860
   H    88.420  55.050  60.970
   H    92.160  55.770  60.980
   H    90.790  56.380  60.100
   H    94.440  57.450  58.450
   H    94.210  58.890  57.400
   H    93.000  58.130  58.510
  