239
PTMA_CHAIN10_time500
 C    90.970  79.370  62.750
   C    91.680  79.680  61.440
   C    93.170  79.560  61.810
   C    91.260  81.130  60.940
   O    92.170  82.010  60.910
   O    89.900  81.260  60.640
   C    89.380  82.590  60.300
   C    89.590  82.830  58.800
   C    89.180  84.280  58.610
   C    90.170  85.290  59.250
   C    89.180  84.560  57.140
   N    87.810  84.470  59.160
   H    87.220  85.210  58.610
   C    87.150  83.720  60.240
   C    86.960  84.730  61.370
   C    85.800  83.490  59.620
   C    87.920  82.480  60.610
   C    91.150  78.660  60.390
   C    91.720  78.430  58.930
   C    92.100  79.780  58.350
   C    93.030  77.490  58.950
   O    93.880  77.590  58.020
   O    93.280  76.800  60.100
   C    94.370  75.930  60.170
   C    94.910  75.750  61.600
   C    96.010  74.710  61.780
   C    97.380  75.490  61.560
   C    96.000  74.160  63.160
   N    95.960  73.580  60.840
   O    96.780  72.690  60.930
   C    95.080  73.510  59.560
   C    95.970  73.850  58.400
   C    94.420  72.150  59.290
   C    93.930  74.550  59.620
   C    90.450  77.960  58.150
   C    90.530  76.980  56.950
   C    89.100  77.140  56.270
   C    90.620  75.500  57.450
   O    90.850  75.280  58.650
   O    90.440  74.540  56.470
   C    90.300  73.150  56.860
   C    90.700  72.260  55.730
   C    90.730  70.850  56.130
   C    92.060  70.540  56.770
   C    90.390  69.940  54.940
   N    89.750  70.570  57.230
   H    89.960  69.730  57.890
   C    88.510  71.330  57.520
   C    88.040  71.140  58.940
   C    87.360  71.010  56.620
   C    88.820  72.800  57.250
   C    91.610  77.280  55.810
   C    92.370  76.370  54.760
   C    93.330  75.260  55.400
   C    91.400  75.550  53.840
   O    91.720  74.400  53.510
   O    90.250  76.140  53.410
   C    89.360  75.370  52.660
   C    88.210  74.640  53.400
   C    87.220  73.830  52.570
   C    86.000  73.360  53.320
   C    87.880  72.430  52.080
   N    86.800  74.590  51.340
   O    85.640  74.420  50.910
   C    87.760  75.530  50.630
   C    88.620  74.790  49.550
   C    86.860  76.520  49.900
   C    88.630  76.280  51.670
   C    93.310  77.330  53.990
   C    93.390  77.370  52.440
   C    93.680  76.040  51.690
   C    92.060  78.120  51.890
   O    91.530  77.740  50.830
   O    91.490  78.930  52.740
   C    90.470  79.830  52.420
   C    89.410  79.680  53.450
   C    88.210  80.530  53.220
   C    87.250  79.810  52.310
   C    87.510  80.810  54.540
   N    88.630  81.700  52.450
   H    87.940  82.260  51.820
   C    89.990  82.320  52.650
   C    90.210  82.950  53.990
   C    90.200  83.530  51.710
   C    91.030  81.200  52.360
   C    94.420  78.430  51.960
   C    95.890  78.420  52.460
   C    96.550  77.050  52.520
   C    96.090  79.030  53.880
   O    95.280  79.800  54.350
   O    97.200  78.690  54.420
   C    97.700  79.190  55.650
   C    96.940  78.750  56.850
   C    97.500  79.510  58.180
   C    97.330  78.610  59.480
   C    96.660  80.790  58.360
   N    98.940  79.930  58.020
   O    99.410  80.690  58.870
   C    99.890  79.420  56.920
   C    100.940  78.570  57.640
   C    100.710  80.640  56.280
   C    99.180  78.760  55.770
   C    96.820  79.210  51.480
   H    90.960  78.310  63.000
   H    91.290  80.060  63.530
   H    89.900  79.520  62.610
   H    93.420  78.600  62.260
   H    93.430  80.350  62.520
   H    93.790  79.800  60.940
   H    89.810  83.360  60.940
   H    90.660  82.760  58.630
   H    89.030  82.240  58.080
   H    89.870  85.570  60.260
   H    90.150  86.280  58.800
   H    91.200  84.970  59.380
   H    88.450  83.920  56.630
   H    90.160  84.520  56.670
   H    88.900  85.600  56.970
   H    86.580  84.170  62.230
   H    87.780  85.370  61.690
   H    86.270  85.530  61.100
   H    85.200  82.890  60.310
   H    85.790  82.910  58.700
   H    85.200  84.390  59.530
   H    87.590  81.650  60.000
   H    87.860  82.300  61.690
   H    91.030  77.700  60.900
   H    90.110  78.930  60.230
   H    92.460  79.780  57.320
   H    92.900  80.110  59.000
   H    91.240  80.460  58.340
   H    95.230  76.270  59.600
   H    95.190  76.700  62.070
   H    94.130  75.350  62.250
   H    98.190  74.760  61.530
   H    97.350  75.950  60.570
   H    97.530  76.300  62.270
   H    96.390  74.920  63.830
   H    96.670  73.300  63.270
   H    95.120  73.780  63.690
   H    96.730  74.600  58.620
   H    96.470  72.970  57.990
   H    95.320  74.260  57.620
   H    94.260  72.020  58.220
   H    95.100  71.350  59.570
   H    93.590  71.940  59.970
   H    93.090  74.200  60.230
   H    93.470  74.730  58.650
   H    89.960  78.880  57.850
   H    89.750  77.430  58.800
   H    88.950  76.590  55.340
   H    88.250  76.900  56.900
   H    88.970  78.200  56.040
   H    91.020  72.980  57.660
   H    91.660  72.540  55.290
   H    89.950  72.300  54.940
   H    92.940  70.550  56.120
   H    92.100  69.530  57.170
   H    92.390  71.220  57.560
   H    91.200  69.820  54.220
   H    90.230  68.950  55.370
   H    89.600  70.270  54.270
   H    87.160  71.700  59.260
   H    88.860  71.520  59.550
   H    88.020  70.090  59.240
   H    86.480  71.490  57.050
   H    87.560  71.400  55.620
   H    87.140  69.940  56.530
   H    88.820  73.260  58.240
   H    88.010  73.320  56.750
   H    92.350  77.930  56.290
   H    90.990  77.940  55.200
   H    94.060  75.680  56.080
   H    93.940  74.650  54.730
   H    92.720  74.580  56.000
   H    89.900  74.680  52.010
   H    87.530  75.290  53.960
   H    88.700  73.960  54.100
   H    85.440  74.160  53.810
   H    86.410  72.890  54.210
   H    85.440  72.530  52.880
   H    88.110  71.890  53.010
   H    87.270  71.990  51.300
   H    88.920  72.490  51.760
   H    89.420  75.410  49.150
   H    89.300  74.040  49.960
   H    87.930  74.420  48.800
   H    86.270  77.040  50.650
   H    87.330  77.230  49.220
   H    86.190  75.990  49.210
   H    87.980  76.880  52.310
   H    89.290  76.970  51.130
   H    93.250  78.370  54.300
   H    94.250  77.100  54.500
   H    92.750  75.500  51.500
   H    94.300  75.330  52.230
   H    94.220  76.160  50.750
   H    89.960  79.640  51.470
   H    89.880  79.990  54.380
   H    89.180  78.630  53.650
   H    87.660  79.550  51.340
   H    86.420  80.510  52.200
   H    86.800  78.900  52.730
   H    87.200  79.860  54.990
   H    86.620  81.420  54.400
   H    88.140  81.280  55.300
   H    91.230  83.330  54.060
   H    90.210  82.270  54.840
   H    89.570  83.780  54.270
   H    90.130  83.330  50.640
   H    91.180  83.990  51.830
   H    89.460  84.280  52.000
   H    91.790  81.240  53.140
   H    91.390  81.400  51.350
   H    94.390  78.300  50.870
   H    93.990  79.430  51.940
   H    96.390  76.450  51.620
   H    97.630  77.130  52.640
   H    96.250  76.450  53.380
   H    97.700  80.280  55.530
   H    97.180  77.700  57.020
   H    95.860  78.710  56.780
   H    96.280  78.330  59.580
   H    97.660  79.110  60.390
   H    97.860  77.680  59.300
   H    95.670  80.530  58.740
   H    97.000  81.330  59.240
   H    96.460  81.280  57.410
   H    100.560  77.830  58.350
   H    101.610  78.000  57.000
   H    101.570  79.190  58.270
   H    101.440  80.990  57.010
   H    99.950  81.400  56.150
   H    101.240  80.400  55.350
   H    99.140  77.700  55.990
   H    99.720  78.890  54.830
   H    97.770  79.480  51.950
   H    97.080  78.620  50.610
   H    96.410  80.200  51.280
  