239
PTMA_CHAIN10_time0point005
 C    87.200  79.240  68.440
   C    86.760  79.830  67.030
   C    87.880  80.760  66.720
   C    85.460  80.550  67.320
   O    85.390  81.760  67.370
   O    84.490  79.720  67.720
   C    83.410  80.230  68.430
   C    82.300  80.850  67.520
   C    81.140  81.550  68.340
   C    81.610  82.970  68.650
   C    79.920  81.600  67.420
   N    80.950  80.840  69.660
   H    80.120  81.070  70.330
   C    81.270  79.370  69.730
   C    81.140  78.850  71.130
   C    80.280  78.500  68.860
   C    82.720  79.130  69.260
   C    86.600  78.610  66.070
   C    86.700  78.790  64.520
   C    85.630  79.850  64.130
   C    88.130  79.160  64.140
   O    88.350  80.080  63.360
   O    89.070  78.280  64.670
   C    90.390  78.290  64.190
   C    91.330  78.940  65.210
   C    92.140  77.920  66.080
   C    93.030  78.770  66.960
   C    91.160  77.220  67.030
   N    92.850  76.870  65.300
   O    94.150  76.890  65.390
   C    92.260  76.600  63.890
   C    92.930  77.430  62.780
   C    92.510  75.060  63.630
   C    90.770  76.860  63.800
   C    86.320  77.400  63.850
   C    85.840  77.150  62.360
   C    84.340  77.260  62.340
   C    86.300  75.610  62.230
   O    87.510  75.300  62.120
   O    85.300  74.730  62.330
   C    85.650  73.330  62.430
   C    86.090  72.760  61.100
   C    86.490  71.280  61.190
   C    87.880  71.150  61.830
   C    86.630  70.740  59.730
   N    85.410  70.470  61.930
   H    85.630  69.410  62.050
   C    84.780  71.050  63.150
   C    85.590  70.810  64.440
   C    83.410  70.340  63.310
   C    84.440  72.550  62.960
   C    86.520  78.010  61.280
   C    86.790  77.700  59.740
   C    87.580  76.400  59.530
   C    85.530  77.510  58.830
   O    85.660  77.670  57.610
   O    84.550  76.880  59.390
   C    83.560  76.310  58.480
   C    82.940  74.990  59.090
   C    81.420  75.070  59.420
   C    81.130  75.920  60.630
   C    80.980  73.650  59.790
   N    80.570  75.610  58.190
   O    79.850  74.810  57.580
   C    81.260  76.670  57.310
   C    81.800  76.080  56.030
   C    80.270  77.770  57.030
   C    82.470  77.320  58.020
   C    87.690  78.840  59.130
   C    87.310  80.370  58.960
   C    88.030  80.850  57.720
   C    85.850  80.620  58.640
   O    85.360  80.510  57.490
   O    85.110  81.090  59.710
   C    84.040  81.980  59.390
   C    82.690  81.270  59.160
   C    81.630  82.260  58.640
   C    81.710  82.350  57.070
   C    80.220  81.700  59.020
   N    81.930  83.670  59.090
   H    81.140  84.390  58.860
   C    82.560  83.810  60.450
   C    81.690  83.360  61.590
   C    82.940  85.310  60.660
   C    83.850  83.010  60.550
   C    87.760  81.260  60.170
   C    89.270  81.800  60.440
   C    90.250  80.650  60.500
   C    89.300  82.670  61.720
   O    88.330  83.410  62.100
   O    90.500  82.550  62.340
   C    90.800  83.530  63.360
   C    91.670  82.920  64.420
   C    92.240  83.970  65.450
   C    93.330  83.220  66.160
   C    91.180  84.300  66.510
   N    92.630  85.280  64.830
   O    93.600  85.880  65.450
   C    92.830  85.220  63.300
   C    94.030  84.430  62.820
   C    93.040  86.690  62.760
   C    91.520  84.740  62.600
   C    89.750  82.840  59.360
   H    88.190  78.790  68.370
   H    87.270  79.980  69.230
   H    86.440  78.540  68.780
   H    88.820  80.220  66.640
   H    88.170  81.530  67.440
   H    87.750  81.380  65.830
   H    83.700  81.110  69.010
   H    82.810  81.610  66.930
   H    81.890  80.110  66.830
   H    82.540  83.030  69.200
   H    80.760  83.550  69.040
   H    81.790  83.380  67.650
   H    80.270  81.980  66.460
   H    79.020  82.050  67.830
   H    79.560  80.570  67.300
   H    80.120  78.930  71.500
   H    81.520  77.830  71.060
   H    81.780  79.470  71.760
   H    80.500  78.580  67.790
   H    79.230  78.790  68.930
   H    80.340  77.440  69.120
   H    82.860  78.270  68.610
   H    83.300  78.910  70.160
   H    87.320  77.840  66.370
   H    85.660  78.080  66.210
   H    85.520  79.930  63.050
   H    85.830  80.850  64.530
   H    84.600  79.630  64.420
   H    90.490  78.640  63.160
   H    91.900  79.680  64.650
   H    90.850  79.640  65.890
   H    93.840  79.320  66.480
   H    92.410  79.500  67.490
   H    93.500  78.130  67.710
   H    91.730  76.530  67.660
   H    90.380  76.560  66.650
   H    90.720  77.910  67.740
   H    92.500  77.400  61.780
   H    92.930  78.500  62.990
   H    93.990  77.210  62.750
   H    93.600  74.940  63.570
   H    92.180  74.530  64.520
   H    92.220  74.760  62.630
   H    90.390  76.140  64.540
   H    90.500  76.590  62.780
   H    85.540  77.030  64.510
   H    87.110  76.720  64.170
   H    84.120  78.330  62.310
   H    83.720  76.730  61.620
   H    83.930  76.860  63.270
   H    86.480  73.360  63.140
   H    86.820  73.350  60.540
   H    85.240  73.040  60.480
   H    88.200  70.110  61.920
   H    88.000  71.650  62.790
   H    88.680  71.520  61.200
   H    85.650  70.820  59.260
   H    87.250  71.360  59.080
   H    86.970  69.720  59.580
   H    85.030  71.300  65.230
   H    86.530  71.370  64.450
   H    85.790  69.770  64.690
   H    82.770  70.270  62.440
   H    83.340  69.280  63.540
   H    82.950  70.860  64.160
   H    84.040  72.930  63.900
   H    83.670  72.660  62.200
   H    87.540  78.220  61.610
   H    86.060  79.000  61.170
   H    88.450  76.570  60.160
   H    87.950  76.330  58.510
   H    86.910  75.590  59.830
   H    84.110  75.920  57.620
   H    83.510  74.610  59.930
   H    83.170  74.160  58.430
   H    81.810  75.600  61.420
   H    80.100  75.820  60.950
   H    81.300  77.000  60.580
   H    79.920  73.590  60.040
   H    81.200  72.950  58.980
   H    81.500  73.240  60.660
   H    82.270  76.870  55.430
   H    82.250  75.110  56.230
   H    81.010  75.860  55.320
   H    79.940  78.160  57.990
   H    80.640  78.600  56.420
   H    79.500  77.370  56.370
   H    82.210  77.820  58.960
   H    82.990  78.070  57.410
   H    88.680  78.800  59.580
   H    87.780  78.500  58.100
   H    89.080  80.560  57.810
   H    87.980  81.940  57.620
   H    87.640  80.390  56.810
   H    84.120  82.550  58.470
   H    82.440  80.910  60.160
   H    82.710  80.440  58.460
   H    81.500  81.410  56.560
   H    82.660  82.670  56.630
   H    80.940  83.040  56.740
   H    80.190  80.670  58.660
   H    79.400  82.300  58.620
   H    80.020  81.710  60.090
   H    80.790  83.970  61.640
   H    82.100  83.510  62.590
   H    81.370  82.330  61.510
   H    83.540  85.760  59.870
   H    83.450  85.470  61.610
   H    82.100  86.000  60.730
   H    83.980  82.470  61.490
   H    84.750  83.630  60.600
   H    87.240  82.220  60.170
   H    87.440  80.770  61.100
   H    90.300  80.100  59.570
   H    91.240  81.030  60.760
   H    90.160  79.920  61.300
   H    89.890  83.990  63.760
   H    92.410  82.280  63.930
   H    91.050  82.150  64.880
   H    94.200  83.150  65.520
   H    93.020  82.230  66.470
   H    93.660  83.920  66.940
   H    91.620  84.980  67.240
   H    90.350  84.900  66.120
   H    90.620  83.480  66.970
   H    94.220  84.530  61.750
   H    94.960  84.740  63.290
   H    93.990  83.390  63.130
   H    93.120  86.700  61.670
   H    93.930  87.180  63.140
   H    92.130  87.150  63.120
   H    91.770  84.420  61.590
   H    90.740  85.490  62.550
   H    88.980  83.600  59.220
   H    90.520  83.510  59.730
   H    90.140  82.340  58.480
  