239
PTMA_CHAIN10_time0point0005
 C    87.190  79.190  68.450
   C    86.770  79.790  67.070
   C    87.870  80.780  66.690
   C    85.460  80.540  67.350
   O    85.360  81.760  67.360
   O    84.470  79.680  67.730
   C    83.350  80.260  68.450
   C    82.300  80.850  67.510
   C    81.150  81.510  68.330
   C    81.570  82.970  68.630
   C    79.910  81.570  67.400
   N    80.950  80.830  69.660
   H    79.990  81.050  70.120
   C    81.250  79.370  69.710
   C    81.160  78.850  71.170
   C    80.300  78.490  68.860
   C    82.720  79.120  69.260
   C    86.600  78.590  66.080
   C    86.660  78.780  64.510
   C    85.650  79.850  64.100
   C    88.110  79.140  64.090
   O    88.390  80.070  63.340
   O    89.020  78.270  64.630
   C    90.380  78.290  64.150
   C    91.310  78.920  65.190
   C    92.100  77.920  66.070
   C    93.030  78.770  66.980
   C    91.120  77.210  67.040
   N    92.760  76.840  65.280
   O    94.190  76.910  65.340
   C    92.290  76.590  63.890
   C    92.980  77.420  62.780
   C    92.500  75.090  63.580
   C    90.770  76.850  63.800
   C    86.340  77.370  63.870
   C    85.860  77.110  62.370
   C    84.320  77.260  62.350
   C    86.290  75.620  62.200
   O    87.470  75.300  62.110
   O    85.270  74.730  62.310
   C    85.660  73.330  62.420
   C    86.060  72.740  61.080
   C    86.480  71.240  61.200
   C    87.880  71.180  61.850
   C    86.610  70.720  59.750
   N    85.410  70.450  61.900
   H    85.720  69.410  62.060
   C    84.780  71.030  63.120
   C    85.580  70.850  64.430
   C    83.400  70.340  63.320
   C    84.460  72.540  62.930
   C    86.520  78.030  61.280
   C    86.750  77.720  59.750
   C    87.580  76.420  59.550
   C    85.560  77.490  58.800
   O    85.660  77.680  57.590
   O    84.510  76.870  59.380
   C    83.520  76.290  58.470
   C    82.910  75.030  59.090
   C    81.390  75.070  59.370
   C    81.100  75.920  60.640
   C    80.970  73.630  59.770
   N    80.600  75.690  58.270
   O    79.810  74.740  57.530
   C    81.280  76.650  57.350
   C    81.770  76.040  56.010
   C    80.260  77.770  57.030
   C    82.480  77.320  58.050
   C    87.670  78.850  59.120
   C    87.310  80.370  58.970
   C    88.050  80.850  57.690
   C    85.820  80.630  58.630
   O    85.360  80.540  57.490
   O    85.100  81.070  59.700
   C    84.020  81.980  59.350
   C    82.700  81.270  59.150
   C    81.620  82.280  58.640
   C    81.710  82.300  57.080
   C    80.230  81.710  59.010
   N    81.910  83.680  59.100
   H    81.050  84.330  58.980
   C    82.560  83.810  60.440
   C    81.670  83.370  61.630
   C    82.970  85.290  60.700
   C    83.890  82.990  60.500
   C    87.760  81.270  60.190
   C    89.230  81.790  60.430
   C    90.250  80.640  60.490
   C    89.250  82.630  61.740
   O    88.340  83.370  62.080
   O    90.470  82.570  62.350
   C    90.790  83.580  63.340
   C    91.630  82.940  64.420
   C    92.240  83.960  65.430
   C    93.380  83.210  66.150
   C    91.160  84.290  66.480
   N    92.590  85.250  64.770
   O    93.650  85.930  65.470
   C    92.810  85.250  63.310
   C    94.040  84.430  62.840
   C    93.010  86.700  62.780
   C    91.510  84.730  62.630
   C    89.700  82.820  59.370
   H    88.170  78.720  68.390
   H    87.230  79.950  69.220
   H    86.470  78.440  68.790
   H    88.830  80.270  66.580
   H    88.020  81.540  67.460
   H    87.650  81.320  65.770
   H    83.720  81.030  69.120
   H    82.770  81.570  66.840
   H    81.920  80.070  66.860
   H    82.460  83.020  69.270
   H    80.760  83.530  69.110
   H    81.810  83.490  67.700
   H    80.180  82.020  66.450
   H    79.090  82.150  67.820
   H    79.510  80.580  67.190
   H    80.130  78.850  71.540
   H    81.540  77.830  71.230
   H    81.760  79.470  71.840
   H    80.430  78.660  67.790
   H    79.250  78.660  69.090
   H    80.490  77.430  69.040
   H    82.780  78.200  68.670
   H    83.370  78.940  70.120
   H    87.350  77.840  66.340
   H    85.650  78.100  66.300
   H    85.650  80.040  63.020
   H    85.850  80.820  64.560
   H    84.630  79.580  64.380
   H    90.450  78.870  63.230
   H    92.020  79.560  64.660
   H    90.750  79.610  65.830
   H    93.750  79.350  66.410
   H    92.440  79.480  67.570
   H    93.570  78.150  67.690
   H    91.660  76.550  67.720
   H    90.360  76.600  66.560
   H    90.600  77.930  67.660
   H    92.500  77.280  61.810
   H    92.970  78.490  62.980
   H    94.030  77.130  62.660
   H    93.560  74.840  63.520
   H    92.050  74.460  64.350
   H    92.080  74.830  62.600
   H    90.240  76.150  64.450
   H    90.410  76.630  62.800
   H    85.590  76.910  64.520
   H    87.210  76.750  64.060
   H    84.040  78.310  62.280
   H    83.840  76.730  61.530
   H    83.860  76.850  63.250
   H    86.470  73.280  63.150
   H    86.860  73.320  60.620
   H    85.230  72.860  60.390
   H    88.270  70.160  61.890
   H    87.920  71.590  62.860
   H    88.610  71.730  61.260
   H    85.650  70.730  59.230
   H    87.280  71.350  59.160
   H    87.010  69.710  59.690
   H    85.020  71.260  65.270
   H    86.540  71.360  64.420
   H    85.760  69.800  64.670
   H    82.780  70.400  62.430
   H    83.490  69.280  63.550
   H    82.860  70.800  64.150
   H    84.100  72.970  63.870
   H    83.630  72.670  62.230
   H    87.520  78.250  61.650
   H    85.980  78.980  61.290
   H    88.460  76.430  60.190
   H    87.930  76.330  58.520
   H    86.960  75.540  59.730
   H    84.070  75.950  57.590
   H    83.450  74.740  60.000
   H    83.110  74.210  58.400
   H    81.680  75.550  61.480
   H    80.050  75.870  60.900
   H    81.360  76.980  60.540
   H    79.920  73.570  60.040
   H    81.160  72.920  58.970
   H    81.530  73.280  60.640
   H    82.350  76.780  55.450
   H    82.370  75.150  56.170
   H    80.950  75.770  55.350
   H    79.890  78.230  57.950
   H    80.710  78.550  56.410
   H    79.410  77.390  56.460
   H    82.180  77.920  58.910
   H    82.960  78.040  57.380
   H    88.630  78.790  59.640
   H    87.910  78.490  58.120
   H    89.110  80.620  57.730
   H    87.910  81.920  57.530
   H    87.670  80.350  56.800
   H    84.290  82.530  58.450
   H    82.400  80.830  60.100
   H    82.800  80.430  58.460
   H    81.550  81.300  56.660
   H    82.680  82.650  56.720
   H    80.940  82.950  56.650
   H    80.140  80.680  58.660
   H    79.410  82.270  58.550
   H    80.050  81.710  60.090
   H    80.720  83.900  61.640
   H    82.150  83.590  62.580
   H    81.470  82.300  61.620
   H    83.570  85.690  59.880
   H    83.550  85.390  61.620
   H    82.110  85.950  60.800
   H    83.990  82.470  61.450
   H    84.760  83.640  60.450
   H    87.170  82.180  60.150
   H    87.430  80.770  61.100
   H    90.330  80.130  59.530
   H    91.250  81.000  60.750
   H    89.980  79.900  61.250
   H    89.870  83.960  63.790
   H    92.410  82.330  63.950
   H    91.030  82.200  64.940
   H    94.210  83.010  65.480
   H    93.030  82.250  66.540
   H    93.760  83.790  66.990
   H    91.560  84.940  67.260
   H    90.310  84.810  66.040
   H    90.760  83.400  66.970
   H    94.170  84.500  61.760
   H    94.970  84.780  63.290
   H    93.960  83.370  63.080
   H    93.020  86.710  61.690
   H    93.960  87.130  63.090
   H    92.200  87.340  63.120
   H    91.740  84.460  61.600
   H    90.790  85.550  62.560
   H    88.910  83.530  59.130
   H    90.530  83.430  59.740
   H    90.060  82.350  58.450
  