239
PTMA_CHAIN10_frame10
 C    72.700  63.110  49.850
   C    73.210  64.200  48.910
   C    72.670  65.520  49.460
   C    72.660  63.890  47.470
   O    71.710  64.570  47.040
   O    73.160  62.750  46.880
   C    72.620  62.230  45.720
   C    73.110  62.990  44.460
   C    72.380  62.460  43.180
   C    71.040  63.180  43.000
   C    73.310  62.890  41.990
   N    72.180  60.940  43.150
   O    71.700  60.450  42.180
   C    72.470  60.010  44.380
   C    71.100  59.420  44.820
   C    73.400  58.860  43.970
   C    73.060  60.770  45.570
   C    74.760  64.120  48.940
   C    75.750  65.030  48.170
   C    75.790  64.460  46.740
   C    75.340  66.490  48.220
   O    74.770  67.060  47.290
   O    75.630  67.070  49.410
   C    75.190  68.370  49.780
   C    74.700  68.340  51.200
   C    74.240  69.680  51.760
   C    72.890  70.060  51.160
   C    74.010  69.420  53.250
   N    75.210  70.760  51.490
   O    75.180  71.800  52.120
   C    76.080  70.750  50.220
   C    75.390  71.760  49.200
   C    77.470  71.310  50.630
   C    76.340  69.320  49.540
   C    77.120  64.890  48.780
   C    78.460  65.270  48.070
   C    78.870  64.200  47.070
   C    79.440  65.210  49.320
   O    79.420  66.000  50.250
   O    80.330  64.250  49.320
   C    81.300  64.070  50.330
   C    82.590  64.590  49.800
   C    83.760  64.520  50.850
   C    83.730  65.720  51.800
   C    85.080  64.510  50.040
   N    83.790  63.200  51.670
   O    84.760  62.880  52.340
   C    82.460  62.390  51.840
   C    81.910  62.620  53.280
   C    82.880  60.910  51.870
   C    81.500  62.590  50.730
   C    78.340  66.720  47.520
   C    79.470  67.670  46.970
   C    79.760  68.790  48.130
   C    80.810  66.960  46.700
   O    81.790  67.130  47.440
   O    80.830  66.270  45.630
   C    82.060  65.750  45.180
   C    82.780  64.600  45.930
   C    84.090  64.190  45.230
   C    84.210  62.640  45.430
   C    85.310  64.910  45.850
   N    84.140  64.300  43.740
   O    85.200  63.950  43.110
   C    82.910  64.800  42.900
   C    83.310  65.960  42.050
   C    82.390  63.710  41.940
   C    81.660  65.110  43.880
   C    78.910  68.360  45.680
   C    79.750  69.270  44.690
   C    81.040  69.950  45.270
   C    80.210  68.360  43.570
   O    81.410  68.220  43.190
   O    79.210  67.900  42.810
   C    79.280  67.560  41.460
   C    78.220  66.390  41.330
   C    77.800  66.070  39.840
   C    78.680  64.860  39.270
   C    76.340  65.570  39.890
   N    77.840  67.160  38.840
   O    77.360  67.050  37.720
   C    78.590  68.450  39.090
   C    77.750  69.650  38.550
   C    79.970  68.420  38.550
   C    78.760  68.730  40.600
   C    78.880  70.380  44.000
   C    78.290  71.710  44.690
   C    78.560  71.890  46.220
   C    76.750  71.650  44.620
   O    76.100  72.520  44.020
   O    76.250  70.610  45.220
   C    75.020  70.080  44.780
   C    75.290  68.700  44.220
   C    74.110  67.850  43.810
   C    74.550  66.380  43.730
   C    73.590  68.220  42.380
   N    72.980  67.960  44.840
   O    72.220  67.000  44.890
   C    72.690  69.200  45.600
   C    71.920  68.970  46.930
   C    71.890  70.150  44.730
   C    74.030  69.850  45.970
   C    78.830  72.930  43.920
   H    73.190  62.140  49.760
   H    72.800  63.400  50.900
   H    71.660  62.900  49.590
   H    71.620  65.390  49.710
   H    72.670  66.300  48.700
   H    73.170  65.890  50.360
   H    71.540  62.150  45.690
   H    72.840  64.050  44.440
   H    74.190  62.940  44.280
   H    70.580  62.900  42.050
   H    71.290  64.240  42.990
   H    70.390  62.910  43.840
   H    72.820  62.800  41.020
   H    74.210  62.280  41.950
   H    73.500  63.960  41.950
   H    70.840  58.850  43.930
   H    71.240  58.780  45.690
   H    70.420  60.220  45.080
   H    74.380  59.310  43.810
   H    73.100  58.490  42.990
   H    73.460  58.090  44.750
   H    74.140  60.870  45.450
   H    72.890  60.350  46.570
   H    75.070  64.210  49.980
   H    75.180  63.140  48.690
   H    74.870  64.540  46.160
   H    76.200  63.460  46.690
   H    76.480  65.070  46.150
   H    74.350  68.710  49.180
   H    73.800  67.740  51.230
   H    75.320  67.820  51.930
   H    72.210  69.210  51.220
   H    72.510  71.030  51.490
   H    72.980  70.300  50.100
   H    73.910  70.400  53.710
   H    74.930  69.030  53.710
   H    73.200  68.770  53.580
   H    76.180  71.970  48.480
   H    74.500  71.320  48.740
   H    75.110  72.700  49.670
   H    78.080  70.610  51.200
   H    78.010  71.630  49.740
   H    77.310  72.170  51.280
   H    77.250  68.910  49.960
   H    76.480  69.390  48.460
   H    77.220  63.860  49.120
   H    77.120  65.370  49.760
   H    79.930  63.940  47.070
   H    78.510  63.210  47.350
   H    78.560  64.380  46.040
   H    81.060  64.660  51.220
   H    82.570  65.590  49.370
   H    82.770  63.880  48.990
   H    84.560  65.690  52.500
   H    82.830  65.680  52.420
   H    83.810  66.690  51.310
   H    86.070  64.470  50.490
   H    85.130  63.580  49.480
   H    85.200  65.320  49.320
   H    81.730  63.690  53.290
   H    82.560  62.530  54.150
   H    80.890  62.290  53.480
   H    82.250  60.330  51.200
   H    83.860  60.730  51.430
   H    82.870  60.470  52.870
   H    80.510  62.190  50.940
   H    81.660  62.020  49.810
   H    78.000  67.260  48.400
   H    77.470  66.770  46.860
   H    79.980  68.310  49.080
   H    78.920  69.460  48.290
   H    80.550  69.420  47.720
   H    82.740  66.560  44.920
   H    82.130  63.730  46.060
   H    83.060  64.910  46.930
   H    83.490  62.130  44.790
   H    84.130  62.420  46.500
   H    85.220  62.320  45.160
   H    85.410  64.820  46.930
   H    86.180  64.580  45.290
   H    85.160  65.980  45.680
   H    83.740  66.750  42.670
   H    84.090  65.690  41.340
   H    82.480  66.350  41.460
   H    82.090  62.870  42.580
   H    81.510  63.910  41.330
   H    83.180  63.390  41.270
   H    81.090  64.210  44.120
   H    80.960  65.730  43.330
   H    78.420  67.610  45.070
   H    78.040  68.930  46.000
   H    81.580  70.500  44.500
   H    81.780  69.190  45.500
   H    80.990  70.670  46.080
   H    80.260  67.200  41.130
   H    77.340  66.380  41.970
   H    78.850  65.540  41.610
   H    78.490  63.930  39.800
   H    79.760  65.020  39.200
   H    78.390  64.690  38.240
   H    75.710  66.400  40.230
   H    76.090  64.720  40.530
   H    75.850  65.440  38.920
   H    77.560  69.690  37.480
   H    78.250  70.540  38.920
   H    76.730  69.620  38.930
   H    80.570  69.330  38.500
   H    79.960  68.130  37.500
   H    80.550  67.600  38.960
   H    77.770  69.040  40.950
   H    79.340  69.640  40.730
   H    79.560  70.710  43.220
   H    78.070  69.900  43.460
   H    79.580  72.240  46.400
   H    78.010  72.670  46.740
   H    78.340  70.950  46.720
   H    74.570  70.600  43.930
   H    75.780  68.080  44.980
   H    76.050  68.760  43.440
   H    74.770  66.000  44.730
   H    75.350  66.190  43.010
   H    73.710  65.830  43.300
   H    73.370  69.290  42.300
   H    74.330  68.030  41.600
   H    72.740  67.620  42.080
   H    72.370  68.190  47.540
   H    71.820  69.930  47.440
   H    70.960  68.540  46.640
   H    70.930  69.740  44.420
   H    72.280  70.500  43.780
   H    71.670  71.090  45.250
   H    74.650  69.400  46.740
   H    73.860  70.830  46.420
   H    78.560  73.900  44.340
   H    79.900  72.960  43.720
   H    78.340  72.900  42.950
  