239
PTMA_CHAIN1_time4
 C    74.700  22.480  57.540
   C    74.510  23.990  57.030
   C    73.010  24.320  56.700
   C    75.280  24.040  55.650
   O    76.250  24.790  55.450
   O    75.040  23.080  54.860
   C    75.780  22.900  53.630
   C    76.980  22.050  53.990
   C    77.780  21.590  52.750
   C    79.220  22.130  52.750
   C    77.950  20.040  52.720
   N    77.070  21.810  51.530
   H    77.620  21.680  50.600
   C    75.620  22.130  51.370
   C    75.470  23.500  50.630
   C    75.030  21.050  50.430
   C    74.940  22.080  52.660
   C    75.190  25.000  58.050
   C    74.920  26.620  58.090
   C    74.910  27.330  56.680
   C    73.470  26.880  58.710
   O    72.650  27.690  58.280
   O    73.110  25.940  59.630
   C    71.780  25.820  60.160
   C    70.760  25.180  59.300
   C    69.400  25.110  60.000
   C    68.700  26.510  60.070
   C    68.480  24.170  59.170
   N    69.500  24.590  61.350
   H    68.570  24.150  61.720
   C    70.730  24.520  62.160
   C    70.470  25.580  63.240
   C    70.780  23.070  62.790
   C    72.020  24.780  61.290
   C    76.070  27.200  59.060
   C    76.410  28.750  59.260
   C    76.770  29.440  57.880
   C    77.710  28.910  60.070
   O    78.380  29.950  60.070
   O    78.010  27.790  60.780
   C    79.170  27.740  61.560
   C    80.450  27.330  60.830
   C    81.650  27.390  61.650
   C    82.250  28.780  61.810
   C    82.730  26.560  60.970
   N    81.400  26.870  62.980
   H    82.290  26.510  63.500
   C    80.060  26.750  63.640
   C    79.980  27.870  64.590
   C    79.900  25.430  64.410
   C    78.970  26.790  62.650
   C    75.290  29.570  59.900
   C    74.830  29.580  61.420
   C    74.740  28.220  62.230
   C    75.670  30.500  62.320
   O    75.570  30.470  63.540
   O    76.420  31.420  61.690
   C    77.330  32.290  62.410
   C    78.650  31.580  62.970
   C    79.560  32.630  63.590
   C    81.000  32.020  63.620
   C    79.260  32.960  65.110
   N    79.630  33.830  62.750
   H    80.560  34.410  62.730
   C    78.460  34.490  62.080
   C    77.660  35.400  63.120
   C    79.110  35.300  60.910
   C    77.680  33.400  61.450
   C    73.320  30.120  61.480
   C    72.910  31.610  61.470
   C    73.200  32.320  62.800
   C    73.580  32.470  60.350
   O    74.180  33.520  60.590
   O    73.490  31.830  59.090
   C    73.900  32.460  57.810
   C    75.330  32.590  57.700
   C    75.640  33.660  56.640
   C    75.500  35.100  57.130
   C    77.090  33.510  56.120
   N    74.810  33.450  55.410
   H    75.160  33.830  54.450
   C    73.560  32.660  55.340
   C    73.460  31.760  54.110
   C    72.490  33.750  55.350
   C    73.390  31.800  56.580
   C    71.320  31.900  61.190
   C    70.090  31.470  62.150
   C    70.170  29.970  62.430
   C    68.850  31.820  61.350
   O    68.880  32.630  60.400
   O    67.810  31.240  61.810
   C    66.600  31.280  61.120
   C    66.370  29.960  60.360
   C    65.190  30.100  59.430
   C    64.860  28.700  58.720
   C    65.580  31.040  58.260
   N    63.920  30.580  60.140
   O    62.760  30.430  59.540
   C    64.040  31.300  61.490
   C    63.090  30.490  62.410
   C    63.440  32.730  61.490
   C    65.460  31.330  62.110
   C    70.050  32.380  63.400
   H    74.520  22.250  58.590
   H    73.940  21.900  57.020
   H    75.680  22.070  57.280
   H    72.630  23.860  55.790
   H    72.810  25.370  56.520
   H    72.420  23.980  57.560
   H    76.120  23.860  53.240
   H    77.590  22.550  54.740
   H    76.680  21.150  54.530
   H    79.090  23.150  53.120
   H    79.620  22.030  51.740
   H    79.870  21.570  53.410
   H    77.070  19.410  52.860
   H    78.640  19.770  53.520
   H    78.360  19.580  51.820
   H    75.780  23.500  49.590
   H    74.440  23.860  50.700
   H    76.240  24.160  51.030
   H    74.990  20.100  50.960
   H    75.500  20.850  49.470
   H    73.980  21.270  50.240
   H    74.610  21.100  53.000
   H    74.000  22.580  52.400
   H    75.010  24.590  59.050
   H    76.260  24.800  57.970
   H    74.390  28.290  56.730
   H    74.380  26.740  55.930
   H    75.960  27.340  56.400
   H    71.520  26.780  60.620
   H    70.720  25.600  58.300
   H    71.020  24.150  59.050
   H    68.460  26.740  59.030
   H    67.730  26.490  60.560
   H    69.260  27.340  60.510
   H    68.660  24.580  58.170
   H    67.410  24.070  59.390
   H    68.850  23.150  59.180
   H    70.360  26.590  62.840
   H    69.560  25.440  63.810
   H    71.260  25.620  63.990
   H    69.840  22.820  63.270
   H    71.040  22.380  61.990
   H    71.550  22.940  63.550
   H    72.440  23.870  60.880
   H    72.830  25.120  61.940
   H    77.000  26.670  58.840
   H    75.860  26.740  60.020
   H    77.330  28.620  57.430
   H    76.000  29.590  57.120
   H    77.360  30.360  57.870
   H    79.220  28.740  61.980
   H    80.530  27.950  59.940
   H    80.310  26.310  60.460
   H    81.630  29.540  62.290
   H    82.460  29.230  60.840
   H    83.220  28.750  62.320
   H    83.080  27.010  60.030
   H    83.610  26.340  61.570
   H    82.290  25.590  60.780
   H    79.930  28.840  64.100
   H    80.780  27.880  65.330
   H    79.080  27.740  65.180
   H    80.610  25.460  65.230
   H    78.880  25.230  64.720
   H    80.070  24.640  63.660
   H    78.040  27.050  63.160
   H    78.800  25.800  62.220
   H    74.340  29.450  59.380
   H    75.540  30.600  59.640
   H    74.100  28.210  63.110
   H    75.680  27.740  62.510
   H    74.320  27.500  61.530
   H    76.770  32.690  63.260
   H    79.180  31.100  62.150
   H    78.470  30.800  63.700
   H    80.970  31.020  64.070
   H    81.690  32.740  64.060
   H    81.290  31.800  62.600
   H    79.010  34.010  65.280
   H    78.320  32.450  65.290
   H    80.000  32.640  65.840
   H    78.220  36.220  63.560
   H    76.880  35.920  62.570
   H    77.280  34.920  64.020
   H    79.560  34.720  60.100
   H    78.280  35.810  60.420
   H    79.750  36.100  61.300
   H    78.180  32.920  60.600
   H    76.820  33.910  61.020
   H    72.720  29.550  60.780
   H    72.890  29.780  62.420
   H    72.990  31.500  63.480
   H    72.430  33.080  62.960
   H    74.170  32.750  63.030
   H    73.470  33.460  57.940
   H    75.710  31.630  57.370
   H    75.730  32.880  58.680
   H    74.440  35.260  57.330
   H    75.690  35.870  56.380
   H    76.070  35.270  58.040
   H    77.270  32.480  55.800
   H    77.790  33.710  56.930
   H    77.330  34.240  55.350
   H    72.530  31.190  54.160
   H    74.250  31.000  54.080
   H    73.400  32.360  53.200
   H    71.530  33.310  55.640
   H    72.430  34.240  54.380
   H    72.680  34.440  56.170
   H    73.840  30.820  56.410
   H    72.340  31.570  56.700
   H    71.200  32.940  60.890
   H    71.010  31.370  60.290
   H    70.220  29.360  61.530
   H    70.930  29.720  63.170
   H    69.240  29.630  62.880
   H    66.550  32.160  60.470
   H    66.240  29.150  61.080
   H    67.250  29.690  59.770
   H    64.550  28.050  59.550
   H    65.670  28.310  58.120
   H    63.970  28.710  58.100
   H    66.060  31.970  58.580
   H    66.400  30.560  57.710
   H    64.780  31.220  57.550
   H    62.080  30.530  62.010
   H    63.310  29.440  62.630
   H    63.050  30.990  63.380
   H    62.570  32.880  60.850
   H    64.240  33.390  61.180
   H    63.180  33.060  62.490
   H    65.570  30.670  62.970
   H    65.700  32.320  62.510
   H    70.180  33.440  63.220
   H    69.070  32.280  63.890
   H    70.700  32.090  64.230
  