239
PTMA_CHAIN8_time0
 C    85.160  40.200  66.780
   C    84.560  38.960  66.050
   C    83.410  39.480  65.180
   C    84.000  38.080  67.180
   O    82.800  37.920  67.390
   O    84.990  37.620  67.990
   C    84.600  37.170  69.320
   C    84.110  35.730  69.320
   C    83.650  35.320  70.750
   C    82.150  35.730  70.900
   C    83.710  33.770  70.820
   N    84.410  36.060  71.820
   H    84.320  35.580  72.800
   C    85.810  36.440  71.500
   C    86.400  37.340  72.620
   C    86.770  35.230  71.330
   C    85.850  37.300  70.200
   C    85.720  38.290  65.250
   C    85.450  37.320  64.030
   C    84.500  36.200  64.470
   C    84.880  38.130  62.840
   O    83.890  37.810  62.200
   O    85.660  39.230  62.580
   C    85.430  39.980  61.360
   C    84.730  41.310  61.650
   C    85.660  42.540  61.720
   C    84.730  43.780  61.940
   C    86.530  42.470  62.990
   N    86.610  42.630  60.570
   O    86.350  43.750  59.710
   C    86.850  41.400  59.760
   C    85.890  41.170  58.560
   C    88.290  41.470  59.210
   C    86.790  40.160  60.680
   C    86.860  36.770  63.580
   C    87.130  35.460  62.690
   C    87.170  34.260  63.660
   C    88.530  35.800  62.120
   O    88.690  36.670  61.270
   O    89.550  35.140  62.730
   C    90.890  35.620  62.410
   C    91.370  35.120  61.050
   C    92.790  35.620  60.710
   C    92.700  37.120  60.320
   C    93.230  34.840  59.440
   N    93.750  35.310  61.820
   H    94.740  35.720  61.630
   C    93.310  35.560  63.230
   C    93.440  37.020  63.720
   C    94.190  34.680  64.170
   C    91.850  35.080  63.460
   C    86.070  35.210  61.540
   C    86.280  34.430  60.190
   C    87.450  35.030  59.360
   C    86.620  32.930  60.180
   O    86.370  32.220  59.210
   O    87.400  32.540  61.220
   C    88.060  31.250  61.060
   C    89.420  31.270  61.770
   C    89.590  30.270  62.950
   C    88.850  30.800  64.210
   C    91.100  30.310  63.350
   N    89.040  28.920  62.670
   O    90.050  27.910  62.490
   C    87.950  28.780  61.650
   C    88.430  28.350  60.240
   C    86.960  27.710  62.170
   C    87.160  30.100  61.510
   C    85.010  34.650  59.250
   C    83.550  34.170  59.550
   C    82.910  33.880  58.150
   C    83.470  32.790  60.250
   O    83.570  31.720  59.650
   O    83.180  32.880  61.580
   C    82.410  31.770  62.100
   C    83.270  30.680  62.690
   C    82.390  29.450  63.090
   C    82.300  28.530  61.840
   C    83.150  28.660  64.180
   N    80.990  29.870  63.430
   H    80.440  29.090  63.950
   C    80.830  31.210  64.070
   C    81.440  31.320  65.490
   C    79.320  31.580  64.180
   C    81.470  32.320  63.170
   C    82.650  35.220  60.310
   C    81.950  36.470  59.630
   C    82.960  37.370  58.900
   C    81.180  37.260  60.730
   O    80.580  36.710  61.650
   O    81.100  38.580  60.430
   C    80.100  39.390  61.110
   C    80.680  40.770  61.330
   C    79.630  41.800  61.840
   C    80.250  43.200  61.590
   C    79.490  41.620  63.380
   N    78.270  41.560  61.270
   O    77.490  42.770  61.220
   C    78.180  40.800  60.010
   C    78.810  41.500  58.780
   C    76.700  40.500  59.640
   C    78.830  39.410  60.240
   C    80.820  36.080  58.650
   H    85.500  40.950  66.070
   H    84.420  40.670  67.440
   H    86.030  39.930  67.390
   H    83.770  40.190  64.430
   H    82.680  40.020  65.780
   H    82.870  38.680  64.680
   H    83.830  37.850  69.700
   H    83.310  35.600  68.600
   H    84.920  35.090  68.960
   H    82.020  36.810  70.850
   H    81.730  35.380  71.840
   H    81.560  35.290  70.100
   H    83.180  33.330  69.970
   H    83.240  33.380  71.730
   H    84.730  33.390  70.790
   H    86.570  36.790  73.550
   H    87.370  37.750  72.320
   H    85.740  38.180  72.840
   H    86.530  34.630  70.450
   H    86.760  34.580  72.200
   H    87.790  35.580  71.200
   H    86.730  37.040  69.610
   H    85.970  38.360  70.420
   H    86.380  39.080  64.890
   H    86.340  37.740  65.970
   H    84.260  35.510  63.660
   H    83.540  36.590  64.810
   H    84.940  35.620  65.290
   H    84.780  39.400  60.700
   H    83.990  41.480  60.860
   H    84.150  41.230  62.570
   H    84.030  43.910  61.110
   H    84.130  43.660  62.840
   H    85.310  44.700  62.060
   H    87.150  43.360  63.100
   H    87.210  41.610  63.010
   H    85.910  42.390  63.890
   H    86.060  40.190  58.110
   H    84.840  41.220  58.850
   H    86.040  41.910  57.780
   H    88.410  42.270  58.480
   H    89.020  41.640  60.010
   H    88.570  40.540  58.710
   H    87.580  40.200  61.430
   H    87.010  39.250  60.120
   H    87.460  36.640  64.480
   H    87.360  37.600  63.080
   H    86.170  33.910  63.920
   H    87.720  33.420  63.250
   H    87.680  34.510  64.590
   H    90.870  36.710  62.460
   H    90.660  35.410  60.270
   H    91.340  34.030  61.050
   H    93.660  37.520  59.980
   H    92.350  37.760  61.130
   H    92.000  37.260  59.490
   H    93.330  33.770  59.650
   H    92.480  34.940  58.650
   H    94.180  35.200  59.040
   H    93.140  37.110  64.760
   H    92.810  37.710  63.160
   H    94.460  37.390  63.660
   H    94.150  33.630  63.870
   H    95.240  34.990  64.160
   H    93.850  34.750  65.200
   H    91.500  35.380  64.450
   H    91.800  33.990  63.460
   H    85.730  36.200  61.240
   H    85.210  34.730  62.010
   H    87.370  36.120  59.300
   H    87.440  34.660  58.330
   H    88.420  34.740  59.760
   H    88.290  31.120  60.000
   H    89.650  32.280  62.110
   H    90.180  31.020  61.020
   H    89.180  31.800  64.470
   H    89.040  30.150  65.070
   H    87.770  30.850  64.090
   H    91.310  29.670  64.210
   H    91.750  30.000  62.530
   H    91.400  31.320  63.620
   H    87.610  28.400  59.530
   H    89.240  28.980  59.860
   H    88.790  27.320  60.220
   H    86.590  27.970  63.160
   H    86.100  27.620  61.500
   H    87.430  26.730  62.240
   H    86.640  30.360  62.430
   H    86.350  29.980  60.780
   H    84.970  35.720  59.060
   H    85.280  34.230  58.280
   H    82.990  34.740  57.480
   H    81.870  33.580  58.240
   H    83.430  33.060  57.640
   H    81.790  31.380  61.290
   H    83.810  31.080  63.550
   H    84.050  30.390  61.990
   H    83.290  28.230  61.500
   H    81.800  29.030  61.010
   H    81.740  27.620  62.050
   H    84.170  28.450  63.850
   H    82.680  27.700  64.400
   H    83.230  29.220  65.110
   H    81.040  30.550  66.160
   H    81.190  32.280  65.940
   H    82.530  31.250  65.490
   H    78.820  31.500  63.210
   H    79.190  32.600  64.530
   H    78.800  30.940  64.890
   H    82.010  33.040  63.790
   H    80.700  32.910  62.660
   H    81.830  34.670  60.770
   H    83.230  35.590  61.160
   H    83.410  36.860  58.040
   H    82.490  38.270  58.500
   H    83.760  37.680  59.580
   H    79.870  38.940  62.080
   H    81.150  41.110  60.410
   H    81.510  40.690  62.040
   H    80.330  43.420  60.530
   H    81.260  43.250  62.000
   H    79.680  44.000  62.070
   H    78.830  42.380  63.810
   H    79.080  40.640  63.630
   H    80.460  41.710  63.880
   H    78.670  40.890  57.880
   H    78.350  42.470  58.590
   H    79.880  41.670  58.880
   H    76.640  39.800  58.800
   H    76.170  41.400  59.330
   H    76.160  40.060  60.480
   H    79.030  38.930  59.280
   H    78.120  38.750  60.730
   H    80.220  35.260  59.050
   H    80.130  36.910  58.480
   H    81.190  35.800  57.660
  