239
PTMA_CHAIN8_time0point0005
 C    85.160  40.200  66.780
   C    84.560  38.960  66.050
   C    83.410  39.480  65.180
   C    84.000  38.080  67.180
   O    82.800  37.920  67.390
   O    84.990  37.620  67.990
   C    84.610  37.170  69.320
   C    84.110  35.730  69.320
   C    83.650  35.320  70.750
   C    82.150  35.720  70.900
   C    83.710  33.770  70.820
   N    84.410  36.060  71.820
   H    84.310  35.580  72.800
   C    85.820  36.440  71.500
   C    86.400  37.350  72.630
   C    86.770  35.230  71.330
   C    85.850  37.300  70.210
   C    85.720  38.290  65.250
   C    85.450  37.320  64.030
   C    84.500  36.200  64.470
   C    84.880  38.130  62.840
   O    83.900  37.810  62.200
   O    85.660  39.230  62.580
   C    85.430  39.980  61.360
   C    84.730  41.310  61.650
   C    85.660  42.540  61.720
   C    84.730  43.780  61.940
   C    86.530  42.470  62.990
   N    86.610  42.630  60.580
   O    86.350  43.760  59.710
   C    86.850  41.400  59.760
   C    85.890  41.170  58.560
   C    88.290  41.470  59.210
   C    86.800  40.160  60.680
   C    86.860  36.770  63.580
   C    87.130  35.470  62.690
   C    87.170  34.260  63.660
   C    88.530  35.800  62.120
   O    88.690  36.670  61.270
   O    89.550  35.140  62.730
   C    90.890  35.620  62.410
   C    91.370  35.120  61.050
   C    92.790  35.620  60.710
   C    92.700  37.120  60.320
   C    93.230  34.840  59.430
   N    93.750  35.310  61.810
   H    94.740  35.720  61.620
   C    93.310  35.560  63.240
   C    93.440  37.020  63.730
   C    94.190  34.680  64.170
   C    91.850  35.080  63.460
   C    86.070  35.210  61.540
   C    86.280  34.430  60.190
   C    87.450  35.030  59.360
   C    86.620  32.930  60.180
   O    86.370  32.220  59.210
   O    87.400  32.540  61.230
   C    88.060  31.250  61.060
   C    89.420  31.270  61.770
   C    89.590  30.270  62.950
   C    88.850  30.810  64.210
   C    91.110  30.310  63.350
   N    89.040  28.920  62.670
   O    90.050  27.910  62.490
   C    87.950  28.780  61.650
   C    88.430  28.350  60.240
   C    86.960  27.710  62.170
   C    87.170  30.100  61.510
   C    85.010  34.650  59.260
   C    83.550  34.170  59.550
   C    82.910  33.880  58.150
   C    83.470  32.790  60.250
   O    83.570  31.720  59.660
   O    83.180  32.880  61.580
   C    82.410  31.770  62.100
   C    83.270  30.680  62.690
   C    82.390  29.450  63.090
   C    82.300  28.530  61.840
   C    83.150  28.660  64.180
   N    80.990  29.870  63.430
   H    80.440  29.090  63.960
   C    80.830  31.210  64.070
   C    81.440  31.320  65.490
   C    79.320  31.580  64.180
   C    81.470  32.320  63.170
   C    82.650  35.220  60.310
   C    81.960  36.470  59.630
   C    82.960  37.370  58.900
   C    81.180  37.260  60.730
   O    80.580  36.710  61.650
   O    81.100  38.580  60.430
   C    80.100  39.390  61.110
   C    80.680  40.770  61.330
   C    79.640  41.800  61.840
   C    80.250  43.200  61.590
   C    79.490  41.620  63.380
   N    78.270  41.570  61.270
   O    77.490  42.770  61.220
   C    78.180  40.800  60.020
   C    78.800  41.500  58.780
   C    76.700  40.500  59.650
   C    78.840  39.410  60.240
   C    80.820  36.080  58.650
   H    85.500  40.960  66.070
   H    84.430  40.660  67.440
   H    86.040  39.930  67.370
   H    83.780  40.180  64.430
   H    82.670  40.030  65.760
   H    82.870  38.680  64.680
   H    83.840  37.860  69.690
   H    83.300  35.610  68.600
   H    84.910  35.100  68.950
   H    82.010  36.800  70.860
   H    81.740  35.390  71.850
   H    81.550  35.300  70.100
   H    83.190  33.340  69.970
   H    83.270  33.380  71.740
   H    84.730  33.380  70.780
   H    86.560  36.790  73.550
   H    87.370  37.760  72.330
   H    85.740  38.180  72.830
   H    86.520  34.630  70.450
   H    86.760  34.570  72.200
   H    87.800  35.590  71.220
   H    86.730  37.030  69.610
   H    85.970  38.360  70.420
   H    86.370  39.090  64.910
   H    86.350  37.750  65.960
   H    84.270  35.510  63.660
   H    83.550  36.570  64.840
   H    84.940  35.620  65.280
   H    84.780  39.410  60.700
   H    84.000  41.480  60.860
   H    84.170  41.220  62.580
   H    84.030  43.920  61.120
   H    84.110  43.660  62.830
   H    85.310  44.700  62.070
   H    87.130  43.370  63.110
   H    87.220  41.620  63.020
   H    85.920  42.390  63.890
   H    86.060  40.180  58.120
   H    84.840  41.200  58.850
   H    86.030  41.910  57.770
   H    88.400  42.270  58.470
   H    89.020  41.650  60.000
   H    88.560  40.540  58.710
   H    87.580  40.200  61.440
   H    87.010  39.250  60.120
   H    87.450  36.630  64.490
   H    87.350  37.600  63.080
   H    86.170  33.900  63.920
   H    87.720  33.420  63.250
   H    87.690  34.510  64.590
   H    90.870  36.710  62.470
   H    90.660  35.420  60.270
   H    91.320  34.030  61.040
   H    93.660  37.510  59.980
   H    92.360  37.760  61.140
   H    92.010  37.260  59.490
   H    93.320  33.780  59.660
   H    92.490  34.940  58.640
   H    94.180  35.190  59.030
   H    93.130  37.100  64.770
   H    92.820  37.720  63.160
   H    94.470  37.370  63.660
   H    94.140  33.630  63.880
   H    95.230  35.000  64.170
   H    93.850  34.740  65.210
   H    91.500  35.370  64.450
   H    91.790  33.990  63.450
   H    85.740  36.200  61.240
   H    85.220  34.720  62.020
   H    87.380  36.110  59.290
   H    87.430  34.670  58.330
   H    88.410  34.740  59.780
   H    88.300  31.110  60.000
   H    89.650  32.280  62.100
   H    90.180  31.030  61.020
   H    89.180  31.810  64.470
   H    89.030  30.160  65.070
   H    87.770  30.850  64.090
   H    91.310  29.670  64.210
   H    91.740  30.000  62.520
   H    91.400  31.330  63.620
   H    87.600  28.410  59.540
   H    89.230  28.990  59.860
   H    88.780  27.320  60.210
   H    86.580  27.950  63.160
   H    86.090  27.610  61.520
   H    87.420  26.730  62.240
   H    86.630  30.360  62.420
   H    86.350  30.000  60.790
   H    84.960  35.720  59.060
   H    85.280  34.230  58.290
   H    83.000  34.730  57.480
   H    81.870  33.570  58.250
   H    83.420  33.060  57.640
   H    81.790  31.390  61.290
   H    83.820  31.070  63.550
   H    84.060  30.400  61.990
   H    83.300  28.230  61.510
   H    81.790  29.030  61.010
   H    81.740  27.610  62.030
   H    84.160  28.440  63.840
   H    82.690  27.710  64.420
   H    83.230  29.210  65.120
   H    81.050  30.560  66.160
   H    81.200  32.290  65.930
   H    82.530  31.250  65.500
   H    78.830  31.500  63.210
   H    79.200  32.610  64.530
   H    78.780  30.950  64.890
   H    82.020  33.030  63.790
   H    80.710  32.910  62.660
   H    81.840  34.670  60.790
   H    83.200  35.600  61.170
   H    83.410  36.870  58.040
   H    82.500  38.270  58.490
   H    83.760  37.680  59.590
   H    79.870  38.960  62.080
   H    81.150  41.090  60.400
   H    81.510  40.690  62.030
   H    80.320  43.420  60.530
   H    81.250  43.260  62.010
   H    79.680  43.990  62.080
   H    78.830  42.380  63.800
   H    79.090  40.640  63.630
   H    80.460  41.710  63.870
   H    78.670  40.880  57.890
   H    78.340  42.460  58.590
   H    79.870  41.680  58.890
   H    76.670  39.810  58.800
   H    76.170  41.400  59.330
   H    76.160  40.050  60.480
   H    79.020  38.920  59.280
   H    78.110  38.760  60.730
   H    80.230  35.260  59.060
   H    80.110  36.890  58.480
   H    81.190  35.810  57.660
  