239
PTMA_CHAIN5_time2
 C    73.440  52.340  58.320
   C    74.790  52.970  58.270
   C    74.670  54.120  57.340
   C    75.870  51.990  57.770
   O    76.820  52.440  57.210
   O    75.510  50.700  57.700
   C    76.120  49.840  56.800
   C    77.210  49.100  57.390
   C    77.980  48.300  56.350
   C    78.960  49.240  55.570
   C    78.820  47.170  57.180
   N    77.080  47.660  55.340
   H    77.520  46.870  54.730
   C    75.730  48.100  54.950
   C    75.930  48.910  53.670
   C    74.930  46.820  54.630
   C    75.100  48.910  56.140
   C    75.040  53.360  59.790
   C    76.370  53.980  60.400
   C    76.690  55.180  59.490
   C    76.040  54.670  61.720
   O    76.750  55.550  62.160
   O    74.960  54.030  62.420
   C    74.360  54.720  63.550
   C    72.960  55.100  63.120
   C    72.380  56.080  64.130
   C    72.540  57.590  63.630
   C    70.860  55.850  64.140
   N    72.790  55.890  65.540
   O    72.490  56.720  66.360
   C    73.660  54.700  65.990
   C    74.910  55.380  66.620
   C    72.980  53.720  66.990
   C    74.280  53.860  64.800
   C    77.510  52.870  60.560
   C    78.770  52.870  61.610
   C    79.500  51.550  61.260
   C    78.290  52.510  63.060
   O    77.090  52.220  63.270
   O    79.280  52.350  63.950
   C    79.000  51.540  65.080
   C    78.560  52.410  66.200
   C    78.140  51.610  67.480
   C    76.660  51.330  67.560
   C    78.550  52.330  68.760
   N    78.740  50.230  67.500
   H    78.470  49.480  68.250
   C    79.910  49.780  66.660
   C    79.750  48.410  66.100
   C    81.220  49.710  67.530
   C    80.200  50.810  65.560
   C    79.560  54.270  61.420
   C    80.410  55.000  62.490
   C    79.520  55.410  63.710
   C    81.600  54.160  63.080
   O    82.040  54.480  64.170
   O    81.980  53.100  62.490
   C    83.270  52.550  62.680
   C    83.410  51.760  63.990
   C    84.860  51.290  64.200
   C    84.900  50.250  65.380
   C    85.750  52.450  64.540
   N    85.480  50.690  62.900
   O    86.510  50.150  63.030
   C    84.870  50.940  61.550
   C    85.780  51.920  60.750
   C    84.850  49.530  60.840
   C    83.470  51.530  61.560
   C    81.020  56.390  61.920
   C    82.020  56.540  60.720
   C    83.200  55.600  60.880
   C    81.240  56.230  59.460
   O    81.500  55.190  58.790
   O    80.420  57.170  59.040
   C    80.010  57.250  57.590
   C    78.690  57.940  57.690
   C    77.970  58.070  56.350
   C    76.910  57.070  56.170
   C    77.350  59.480  56.160
   N    79.030  57.870  55.300
   H    78.730  57.390  54.380
   C    80.400  58.420  55.440
   C    80.350  59.970  55.070
   C    81.280  57.690  54.440
   C    80.970  58.180  56.870
   C    82.520  58.030  60.600
   C    83.600  58.720  61.470
   C    83.380  58.430  62.990
   C    83.480  60.260  61.290
   O    83.620  61.010  62.220
   O    83.250  60.590  60.030
   C    82.870  61.900  59.650
   C    83.490  62.240  58.340
   C    83.010  63.490  57.610
   C    83.190  63.300  56.130
   C    83.810  64.770  58.070
   N    81.570  63.870  57.960
   O    81.010  64.780  57.330
   C    80.810  63.200  59.040
   C    79.350  62.970  58.590
   C    80.730  64.130  60.260
   C    81.390  61.900  59.550
   C    85.110  58.440  61.070
   H    73.500  51.500  59.010
   H    72.630  52.930  58.760
   H    73.090  52.070  57.320
   H    75.520  54.790  57.190
   H    73.910  54.840  57.620
   H    74.420  53.690  56.370
   H    76.430  50.490  55.990
   H    77.830  49.920  57.740
   H    76.820  48.550  58.240
   H    78.720  50.300  55.560
   H    78.960  48.900  54.530
   H    79.990  49.180  55.920
   H    79.640  47.560  57.790
   H    79.180  46.480  56.410
   H    78.310  46.360  57.710
   H    76.110  48.150  52.910
   H    75.000  49.400  53.360
   H    76.750  49.620  53.780
   H    74.010  47.100  54.120
   H    74.930  46.230  55.540
   H    75.450  46.220  53.880
   H    74.700  48.250  56.910
   H    74.260  49.490  55.760
   H    74.250  54.080  59.990
   H    74.840  52.530  60.470
   H    77.150  54.880  58.550
   H    77.380  55.890  59.950
   H    75.780  55.680  59.160
   H    74.840  55.670  63.790
   H    72.990  55.650  62.180
   H    72.320  54.230  62.990
   H    72.170  57.690  62.610
   H    72.040  58.330  64.260
   H    73.610  57.800  63.680
   H    70.620  54.850  64.490
   H    70.310  55.740  63.200
   H    70.450  56.520  64.900
   H    75.500  54.700  67.230
   H    75.700  55.550  65.880
   H    74.720  56.210  67.290
   H    72.070  53.360  66.520
   H    73.580  52.820  67.160
   H    72.520  54.130  67.890
   H    73.680  53.050  64.400
   H    75.240  53.430  65.100
   H    78.020  52.970  59.600
   H    77.060  51.870  60.630
   H    78.860  50.690  61.460
   H    79.820  51.600  60.220
   H    80.420  51.470  61.840
   H    78.230  50.790  64.850
   H    77.710  53.010  65.880
   H    79.340  53.160  66.350
   H    76.200  50.870  66.680
   H    76.190  52.310  67.620
   H    76.390  50.890  68.510
   H    79.620  52.500  68.640
   H    78.020  53.270  68.870
   H    78.330  51.790  69.680
   H    79.680  47.690  66.910
   H    80.640  48.080  65.560
   H    78.810  48.210  65.590
   H    82.010  49.080  67.120
   H    81.480  50.750  67.730
   H    80.970  49.250  68.490
   H    80.650  50.250  64.740
   H    80.950  51.530  65.870
   H    78.940  54.940  60.820
   H    80.270  53.940  60.670
   H    80.160  55.970  64.390
   H    79.020  54.650  64.310
   H    78.860  56.190  63.330
   H    84.030  53.330  62.630
   H    82.740  50.910  64.050
   H    83.140  52.370  64.850
   H    85.850  49.720  65.370
   H    84.100  49.510  65.300
   H    84.820  50.820  66.310
   H    86.080  52.980  63.640
   H    85.210  53.220  65.090
   H    86.520  52.070  65.200
   H    85.600  51.820  59.680
   H    85.570  52.970  60.960
   H    86.810  51.770  61.050
   H    84.160  48.880  61.390
   H    84.540  49.610  59.800
   H    85.850  49.120  60.720
   H    82.590  50.890  61.520
   H    83.380  52.160  60.680
   H    80.150  57.000  61.680
   H    81.480  56.780  62.830
   H    82.940  54.560  60.700
   H    83.550  55.630  61.910
   H    83.930  55.870  60.120
   H    79.850  56.260  57.160
   H    78.900  58.890  58.190
   H    78.120  57.540  58.530
   H    76.470  57.160  55.180
   H    76.090  57.220  56.860
   H    77.310  56.050  56.230
   H    77.040  59.610  55.120
   H    77.930  60.360  56.420
   H    76.440  59.550  56.750
   H    81.320  60.350  54.770
   H    80.070  60.560  55.940
   H    79.690  60.190  54.230
   H    81.650  56.730  54.800
   H    82.180  58.290  54.290
   H    80.730  57.500  53.520
   H    81.120  59.090  57.450
   H    81.890  57.590  56.830
   H    82.940  58.090  59.600
   H    81.670  58.710  60.580
   H    84.100  58.980  63.580
   H    82.420  58.710  63.420
   H    83.500  57.370  63.230
   H    83.230  62.600  60.400
   H    83.200  61.380  57.740
   H    84.580  62.220  58.410
   H    83.010  64.210  55.560
   H    82.420  62.610  55.800
   H    84.220  62.980  55.940
   H    83.500  65.690  57.590
   H    83.800  65.000  59.140
   H    84.830  64.590  57.760
   H    79.210  62.310  57.730
   H    78.740  62.620  59.420
   H    78.900  63.930  58.330
   H    81.640  64.250  60.850
   H    80.040  63.760  61.020
   H    80.380  65.120  59.960
   H    80.880  61.040  59.110
   H    81.050  61.870  60.590
   H    85.140  57.380  60.790
   H    85.390  59.030  60.190
   H    85.810  58.570  61.890
  