239
PTMA_CHAIN9_frame5
 C    79.980  38.530  59.280
   C    78.960  39.150  60.260
   C    79.730  39.650  61.510
   C    77.870  38.120  60.710
   O    76.900  38.510  61.360
   O    78.240  36.940  60.590
   C    77.260  35.950  60.880
   C    76.290  35.830  59.730
   C    75.160  34.680  59.850
   C    73.880  35.180  60.540
   C    74.810  34.250  58.440
   N    75.710  33.440  60.500
   O    75.040  32.400  60.570
   C    77.090  33.330  61.130
   C    76.890  33.140  62.660
   C    77.810  32.120  60.600
   C    78.030  34.540  60.960
   C    78.390  40.350  59.450
   C    77.060  40.440  58.540
   C    76.870  39.230  57.560
   C    75.790  40.510  59.430
   O    74.820  39.850  59.220
   O    75.960  41.240  60.550
   C    74.980  41.290  61.610
   C    75.800  41.260  62.910
   C    75.000  41.740  64.180
   C    74.200  40.500  64.640
   C    76.030  42.030  65.240
   N    74.150  42.970  64.030
   O    74.040  43.720  64.980
   C    73.470  43.250  62.730
   C    72.060  42.560  62.870
   C    73.110  44.730  62.600
   C    74.290  42.650  61.540
   C    77.110  41.810  57.770
   C    75.960  42.490  56.890
   C    75.570  41.520  55.760
   C    76.650  43.810  56.280
   O    77.470  44.530  56.870
   O    76.170  44.060  55.010
   C    76.980  44.910  54.240
   C    76.290  46.170  53.800
   C    77.020  47.120  52.840
   C    77.910  48.110  53.600
   C    75.770  47.830  52.160
   N    77.870  46.420  51.820
   O    78.040  46.960  50.730
   C    78.390  44.990  52.090
   C    79.730  45.150  52.770
   C    78.600  44.220  50.750
   C    77.430  44.070  52.960
   C    74.660  42.990  57.710
   C    73.690  44.130  57.400
   C    74.310  45.530  57.570
   C    73.220  44.040  55.920
   O    72.960  45.060  55.270
   O    72.740  42.830  55.540
   C    72.250  42.800  54.270
   C    73.290  42.850  53.090
   C    72.710  42.980  51.660
   C    73.850  42.560  50.690
   C    72.300  44.470  51.360
   N    71.580  42.020  51.450
   O    71.100  41.940  50.310
   C    71.000  41.250  52.600
   C    69.430  41.550  52.640
   C    70.990  39.740  52.210
   C    71.670  41.400  54.040
   C    72.580  44.130  58.470
   C    71.030  44.200  58.250
   C    70.690  45.400  57.460
   C    70.580  42.910  57.610
   O    69.850  42.910  56.590
   O    70.920  41.890  58.380
   C    70.610  40.580  57.960
   C    71.850  39.880  57.420
   C    71.720  38.350  57.200
   C    71.040  38.090  55.810
   C    73.130  37.820  57.080
   N    70.990  37.620  58.280
   O    70.660  36.420  58.080
   C    70.520  38.370  59.480
   C    71.490  38.380  60.580
   C    69.250  37.570  60.000
   C    70.050  39.830  59.140
   C    70.380  44.370  59.660
   C    68.920  44.480  59.990
   C    68.400  45.920  59.720
   C    68.780  44.140  61.520
   O    69.200  44.930  62.380
   O    68.080  42.970  61.740
   C    67.950  42.360  63.030
   C    66.760  42.990  63.790
   C    66.380  42.270  65.110
   C    64.880  42.500  65.360
   C    67.040  42.960  66.290
   N    66.640  40.710  65.120
   O    66.280  40.000  66.040
   C    67.330  39.990  63.960
   C    66.530  38.770  63.490
   C    68.740  39.490  64.440
   C    67.560  40.890  62.650
   C    67.960  43.530  59.220
   H    79.520  38.230  58.340
   H    80.700  39.340  59.120
   H    80.570  37.680  59.590
   H    80.200  38.790  62.000
   H    79.060  40.030  62.280
   H    80.570  40.310  61.300
   H    76.810  36.180  61.850
   H    75.820  36.810  59.600
   H    76.770  35.580  58.780
   H    73.140  34.380  60.660
   H    73.240  35.740  59.860
   H    74.120  35.710  61.470
   H    74.530  35.120  57.840
   H    74.000  33.530  58.480
   H    75.630  33.810  57.860
   H    77.750  32.810  63.240
   H    76.420  34.010  63.140
   H    76.160  32.340  62.810
   H    78.020  32.160  59.530
   H    77.310  31.210  60.910
   H    78.790  31.960  61.060
   H    78.610  34.400  60.040
   H    78.790  34.530  61.740
   H    78.480  41.220  60.110
   H    79.100  40.740  58.720
   H    77.650  39.170  56.800
   H    75.910  39.300  57.050
   H    76.850  38.220  57.960
   H    74.210  40.530  61.570
   H    76.210  40.260  63.070
   H    76.720  41.810  62.750
   H    73.490  40.180  63.870
   H    74.900  39.690  64.810
   H    73.560  40.750  65.490
   H    76.680  41.180  65.460
   H    75.500  42.230  66.170
   H    76.640  42.890  64.980
   H    71.720  41.780  62.180
   H    71.860  42.120  63.850
   H    71.300  43.290  62.590
   H    72.450  45.220  63.320
   H    73.960  45.410  62.650
   H    72.570  44.930  61.670
   H    75.010  43.440  61.290
   H    73.570  42.470  60.750
   H    77.900  41.680  57.030
   H    77.410  42.540  58.530
   H    76.400  41.110  55.180
   H    74.920  40.690  56.050
   H    74.950  42.050  55.050
   H    77.910  45.110  54.770
   H    75.960  46.720  54.680
   H    75.330  45.800  53.450
   H    78.590  47.640  54.310
   H    77.290  48.750  54.240
   H    78.450  48.700  52.850
   H    75.160  48.310  52.930
   H    76.090  48.620  51.490
   H    75.090  47.200  51.600
   H    80.330  45.830  52.170
   H    80.210  44.170  52.840
   H    79.600  45.520  53.780
   H    77.690  44.070  50.170
   H    79.090  44.800  49.980
   H    79.200  43.310  50.780
   H    78.030  43.230  53.330
   H    76.590  43.660  52.420
   H    75.060  43.230  58.700
   H    74.110  42.050  57.840
   H    74.950  45.790  56.720
   H    75.020  45.560  58.400
   H    73.530  46.280  57.720
   H    71.550  43.580  53.980
   H    73.880  41.940  53.160
   H    74.100  43.570  53.180
   H    74.210  41.570  50.970
   H    74.750  43.160  50.810
   H    73.500  42.410  49.670
   H    72.080  44.570  50.300
   H    71.370  44.700  51.880
   H    73.050  45.140  51.770
   H    69.080  41.740  51.620
   H    68.820  40.770  53.100
   H    69.220  42.420  53.260
   H    71.950  39.250  52.060
   H    70.470  39.230  53.020
   H    70.430  39.640  51.280
   H    72.420  40.630  54.200
   H    70.800  41.140  54.640
   H    72.730  43.160  58.950
   H    72.790  44.830  59.270
   H    71.180  45.550  56.500
   H    71.060  46.300  57.960
   H    69.620  45.400  57.230
   H    69.790  40.560  57.250
   H    72.680  40.090  58.090
   H    72.050  40.350  56.450
   H    71.560  38.630  55.020
   H    70.090  38.610  55.710
   H    70.740  37.070  55.560
   H    73.600  37.820  58.060
   H    73.860  38.410  56.520
   H    73.200  36.770  56.810
   H    72.410  38.860  60.230
   H    71.800  37.360  60.840
   H    71.220  38.860  61.520
   H    68.590  37.390  59.150
   H    68.720  38.100  60.790
   H    69.650  36.650  60.420
   H    70.120  40.470  60.010
   H    68.970  39.840  59.010
   H    70.750  43.520  60.230
   H    70.820  45.260  60.120
   H    67.490  46.070  60.290
   H    69.140  46.640  60.080
   H    68.160  46.130  58.680
   H    68.850  42.300  63.630
   H    65.910  42.760  63.150
   H    66.940  44.060  63.910
   H    64.470  43.500  65.490
   H    64.550  41.940  66.230
   H    64.220  42.180  64.550
   H    66.780  42.390  67.190
   H    68.130  43.010  66.320
   H    66.740  43.990  66.460
   H    65.610  38.940  62.930
   H    67.120  38.210  62.760
   H    66.300  38.170  64.370
   H    69.340  40.380  64.650
   H    69.340  38.850  63.800
   H    68.630  38.960  65.390
   H    66.640  41.020  62.080
   H    68.330  40.580  61.940
   H    68.190  42.490  59.430
   H    66.960  43.770  59.590
   H    67.990  43.680  58.140
  