239
PTMA_CHAIN4_time0point5
 C    105.200  96.730  20.280
   C    104.400  95.350  20.290
   C    103.290  95.620  19.360
   C    103.930  95.130  21.700
   O    102.830  94.820  22.120
   O    104.960  95.300  22.530
   C    104.860  95.040  23.950
   C    104.990  93.600  24.140
   C    105.060  93.190  25.570
   C    103.620  92.980  26.100
   C    105.800  91.860  25.660
   N    105.750  94.150  26.410
   H    105.680  93.960  27.480
   C    106.340  95.470  25.940
   C    105.650  96.570  26.810
   C    107.870  95.320  26.340
   C    106.130  95.740  24.500
   C    105.360  94.220  19.710
   C    104.990  92.740  19.420
   C    104.060  92.130  20.610
   C    104.200  92.570  18.130
   O    103.270  91.790  17.930
   O    104.650  93.390  17.210
   C    104.100  93.380  15.870
   C    104.600  94.710  15.330
   C    104.990  94.740  13.760
   C    104.200  95.820  12.940
   C    106.460  95.150  13.730
   N    104.770  93.530  12.960
   O    105.100  93.390  11.760
   C    104.250  92.220  13.600
   C    102.740  92.170  13.430
   C    104.770  90.970  12.940
   C    104.640  92.180  15.060
   C    106.270  91.900  19.140
   C    106.500  90.340  19.180
   C    106.490  89.920  20.720
   C    107.870  90.210  18.550
   O    108.030  90.310  17.320
   O    108.840  90.340  19.500
   C    110.130  90.740  19.090
   C    111.120  89.630  19.100
   C    112.440  89.990  18.510
   C    112.580  89.800  16.980
   C    113.480  88.980  19.070
   N    112.870  91.350  18.930
   H    113.900  91.360  19.290
   C    111.920  92.420  19.390
   C    111.510  93.280  18.200
   C    112.670  93.270  20.420
   C    110.710  91.810  19.960
   C    105.360  89.530  18.370
   C    105.560  88.050  17.880
   C    106.500  87.960  16.580
   C    106.120  86.920  18.780
   O    105.710  85.780  18.580
   O    107.240  87.170  19.530
   C    107.890  86.130  20.220
   C    109.360  86.460  20.250
   C    110.070  86.620  21.700
   C    109.900  88.050  22.250
   C    111.570  86.320  21.520
   N    109.610  85.610  22.680
   O    110.270  85.190  23.620
   C    108.220  85.020  22.580
   C    108.410  83.600  21.940
   C    107.440  84.780  23.930
   C    107.330  85.900  21.650
   C    104.190  87.550  17.250
   C    102.830  87.110  18.020
   C    102.220  85.900  17.230
   C    103.040  86.650  19.460
   O    102.730  85.500  19.830
   O    103.280  87.640  20.250
   C    102.680  87.710  21.500
   C    103.760  88.110  22.470
   C    103.320  87.960  23.890
   C    103.380  86.440  24.250
   C    104.240  88.720  24.800
   N    102.060  88.520  24.110
   H    101.640  88.200  25.060
   C    101.090  89.020  23.080
   C    100.700  90.450  23.410
   C    99.790  88.200  23.140
   C    101.700  88.880  21.630
   C    101.730  88.290  18.150
   C    100.820  88.880  17.090
   C    101.550  89.140  15.740
   C    100.190  90.220  17.660
   O    99.980  90.440  18.890
   O    100.060  91.060  16.700
   C    99.290  92.240  16.810
   C    100.080  93.310  16.070
   C    99.200  94.550  15.790
   C    99.380  94.930  14.280
   C    99.730  95.750  16.570
   N    97.720  94.440  15.910
   O    97.110  95.460  16.290
   C    97.020  93.130  15.890
   C    96.210  92.920  14.560
   C    96.010  92.990  17.140
   C    98.110  91.950  16.000
   C    99.600  87.980  16.830
   H    105.480  96.910  19.240
   H    104.640  97.570  20.680
   H    106.150  96.650  20.820
   H    103.540  95.710  18.300
   H    102.860  96.610  19.540
   H    102.460  94.920  19.440
   H    104.030  95.440  24.520
   H    104.250  93.040  23.560
   H    105.920  93.300  23.660
   H    103.060  93.900  26.280
   H    103.580  92.430  27.040
   H    102.920  92.570  25.380
   H    105.450  91.020  25.070
   H    105.700  91.400  26.640
   H    106.840  92.090  25.440
   H    105.860  96.460  27.870
   H    105.900  97.570  26.470
   H    104.580  96.480  26.630
   H    108.340  94.480  25.820
   H    108.020  95.100  27.400
   H    108.410  96.260  26.240
   H    107.030  95.460  23.960
   H    106.060  96.810  24.300
   H    105.810  94.630  18.800
   H    106.230  94.290  20.350
   H    103.700  91.120  20.440
   H    103.100  92.650  20.610
   H    104.600  92.070  21.550
   H    103.020  93.290  15.840
   H    103.840  95.480  15.490
   H    105.460  95.150  15.830
   H    103.110  95.740  13.010
   H    104.500  96.790  13.350
   H    104.580  95.690  11.930
   H    106.930  95.000  12.760
   H    107.080  94.590  14.430
   H    106.500  96.220  13.940
   H    102.300  91.250  13.830
   H    102.160  92.970  13.880
   H    102.540  92.160  12.360
   H    104.370  90.930  11.930
   H    105.860  90.960  12.950
   H    104.490  90.100  13.530
   H    105.720  92.050  15.190
   H    104.240  91.240  15.440
   H    107.080  92.390  19.690
   H    106.590  92.250  18.160
   H    105.450  89.740  21.000
   H    107.070  89.010  20.860
   H    106.970  90.750  21.240
   H    110.180  91.050  18.050
   H    110.740  88.690  18.690
   H    111.300  89.170  20.070
   H    113.630  89.830  16.690
   H    112.120  90.610  16.410
   H    112.310  88.800  16.630
   H    113.470  88.950  20.160
   H    113.320  87.970  18.700
   H    114.530  89.140  18.820
   H    110.700  93.940  18.540
   H    111.140  92.710  17.350
   H    112.340  93.860  17.790
   H    113.030  92.640  21.230
   H    113.520  93.810  20.010
   H    111.990  94.050  20.770
   H    110.000  92.540  20.350
   H    111.040  91.380  20.910
   H    105.240  90.080  17.440
   H    104.470  89.620  19.000
   H    106.160  88.700  15.850
   H    106.460  86.980  16.110
   H    107.530  88.210  16.810
   H    107.680  85.160  19.790
   H    109.690  87.230  19.540
   H    109.780  85.540  19.850
   H    110.790  88.680  22.170
   H    109.780  87.950  23.330
   H    109.090  88.680  21.890
   H    112.180  86.760  22.300
   H    111.720  85.240  21.460
   H    111.960  86.740  20.590
   H    107.620  83.200  21.290
   H    109.290  83.710  21.300
   H    108.630  82.750  22.580
   H    107.060  85.660  24.450
   H    106.580  84.110  23.940
   H    108.140  84.370  24.660
   H    106.960  86.760  22.190
   H    106.420  85.330  21.490
   H    103.850  88.430  16.710
   H    104.370  86.690  16.600
   H    101.900  86.110  16.210
   H    101.450  85.320  17.740
   H    103.050  85.200  17.170
   H    102.230  86.740  21.740
   H    104.040  89.150  22.320
   H    104.700  87.590  22.240
   H    104.390  86.040  24.130
   H    102.690  85.850  23.640
   H    103.040  86.210  25.260
   H    105.150  89.050  24.300
   H    104.570  88.100  25.630
   H    103.760  89.500  25.390
   H    100.830  90.640  24.480
   H    99.670  90.630  23.100
   H    101.370  91.140  22.880
   H    100.110  87.160  23.140
   H    99.160  88.470  22.300
   H    99.330  88.450  24.100
   H    102.190  89.830  21.410
   H    100.890  88.810  20.900
   H    101.000  87.900  18.860
   H    102.200  89.160  18.620
   H    101.910  88.180  15.360
   H    100.970  89.480  14.880
   H    102.330  89.870  15.940
   H    99.150  92.500  17.860
   H    100.400  92.840  15.140
   H    101.060  93.520  16.510
   H    99.110  94.130  13.590
   H    100.430  95.140  14.090
   H    98.810  95.840  14.100
   H    99.140  96.630  16.300
   H    99.660  95.620  17.650
   H    100.750  96.000  16.290
   H    95.820  91.920  14.420
   H    95.390  93.630  14.550
   H    96.810  93.040  13.650
   H    95.400  92.090  17.150
   H    95.400  93.890  17.190
   H    96.450  93.040  18.140
   H    98.330  91.680  14.970
   H    97.480  91.220  16.510
   H    99.120  87.610  17.740
   H    98.820  88.430  16.220
   H    99.990  87.090  16.330
  