239
PTMA_CHAIN4_time50
 C    98.140  97.750  18.790
   C    97.650  96.230  19.050
   C    96.350  96.050  18.090
   C    97.170  96.260  20.530
   O    96.040  95.840  20.860
   O    98.160  96.540  21.360
   C    97.900  96.600  22.760
   C    98.580  95.400  23.420
   C    98.330  95.520  24.890
   C    97.080  94.740  25.320
   C    99.480  94.920  25.680
   N    98.160  96.910  25.390
   H    97.890  97.040  26.440
   C    98.260  98.140  24.610
   C    96.900  98.800  24.660
   C    99.230  99.120  25.210
   C    98.690  97.770  23.230
   C    98.950  95.310  18.830
   C    98.760  93.790  18.520
   C    97.830  93.260  19.620
   C    98.290  93.600  17.030
   O    97.330  92.860  16.810
   O    98.960  94.360  16.160
   C    98.800  94.210  14.760
   C    97.830  95.200  14.140
   C    97.880  95.270  12.540
   C    96.470  94.970  11.920
   C    98.260  96.670  12.110
   N    98.900  94.340  11.980
   O    98.650  93.830  10.900
   C    100.180  94.050  12.680
   C    100.490  92.560  12.520
   C    101.260  94.890  12.040
   C    100.240  94.360  14.200
   C    100.150  93.050  18.560
   C    100.300  91.400  18.600
   C    99.910  90.930  20.050
   C    101.800  91.220  18.340
   O    102.350  91.340  17.240
   O    102.490  91.450  19.440
   C    103.810  91.850  19.470
   C    104.800  90.750  19.510
   C    106.210  91.290  19.570
   C    106.600  91.780  18.170
   C    107.210  90.180  19.970
   N    106.330  92.490  20.450
   H    107.290  92.900  20.740
   C    105.230  93.010  21.280
   C    105.110  94.510  20.880
   C    105.500  92.880  22.740
   C    103.890  92.310  20.960
   C    99.480  90.700  17.480
   C    99.580  89.190  17.100
   C    100.690  88.870  16.060
   C    99.830  88.050  18.240
   O    99.020  87.120  18.360
   O    100.990  88.250  18.930
   C    101.630  87.170  19.510
   C    103.110  87.580  19.700
   C    104.000  86.420  20.170
   C    105.400  87.000  20.610
   C    104.200  85.440  19.000
   N    103.360  85.630  21.300
   O    104.180  85.160  22.130
   C    101.870  85.730  21.630
   C    101.300  84.330  21.410
   C    101.810  86.070  23.150
   C    101.120  86.760  20.850
   C    98.320  88.800  16.210
   C    96.800  88.570  16.600
   C    96.390  87.350  15.800
   C    96.510  88.210  18.120
   O    95.770  87.270  18.390
   O    96.880  89.170  19.080
   C    96.360  89.010  20.430
   C    97.410  88.120  21.160
   C    96.810  87.690  22.460
   C    95.720  86.740  22.220
   C    97.850  86.960  23.270
   N    96.180  88.820  23.150
   H    95.870  88.700  24.190
   C    96.120  90.220  22.640
   C    97.250  91.030  23.330
   C    94.770  90.760  23.050
   C    96.270  90.330  21.170
   C    95.770  89.750  16.400
   C    95.190  90.320  15.030
   C    96.370  90.850  14.100
   C    94.300  91.550  15.360
   O    93.910  91.800  16.520
   O    93.900  92.280  14.240
   C    92.940  93.280  14.330
   C    93.690  94.560  14.780
   C    92.760  95.730  14.930
   C    93.650  96.990  15.270
   C    91.730  95.550  16.060
   N    91.970  95.950  13.660
   O    91.520  97.100  13.530
   C    91.670  94.830  12.650
   C    92.100  95.310  11.300
   C    90.130  94.670  12.570
   C    92.350  93.510  12.980
   C    94.320  89.300  14.170
   H    97.330  98.480  18.860
   H    98.840  98.040  19.570
   H    98.580  97.870  17.800
   H    96.520  96.210  17.030
   H    95.570  96.730  18.460
   H    95.930  95.050  18.130
   H    96.820  96.600  22.870
   H    98.090  94.500  23.030
   H    99.630  95.420  23.130
   H    97.020  93.760  24.850
   H    96.190  95.280  24.990
   H    97.010  94.810  26.410
   H    99.420  95.150  26.740
   H    100.420  95.300  25.270
   H    99.420  93.830  25.660
   H    96.930  99.630  23.950
   H    96.040  98.140  24.490
   H    96.780  99.240  25.650
   H    98.910  100.150  25.010
   H    100.250  99.000  24.830
   H    99.290  99.070  26.300
   H    99.760  97.550  23.170
   H    98.570  98.630  22.570
   H    99.670  95.890  18.240
   H    99.540  95.230  19.750
   H    97.670  92.200  19.420
   H    96.810  93.650  19.520
   H    98.230  93.370  20.620
   H    98.500  93.180  14.620
   H    96.800  95.220  14.500
   H    98.000  96.210  14.510
   H    96.550  95.340  10.900
   H    96.220  93.910  11.970
   H    95.810  95.660  12.440
   H    98.360  96.810  11.040
   H    99.130  96.890  12.720
   H    97.500  97.390  12.410
   H    99.820  91.890  13.050
   H    100.420  92.200  11.490
   H    101.490  92.270  12.850
   H    102.180  94.830  12.630
   H    101.500  94.440  11.080
   H    101.000  95.940  11.890
   H    100.570  95.380  14.360
   H    100.910  93.660  14.700
   H    100.570  93.380  19.510
   H    100.860  93.460  17.840
   H    98.960  90.400  20.080
   H    100.570  90.160  20.460
   H    100.050  91.740  20.760
   H    104.000  92.650  18.750
   H    104.760  90.140  18.610
   H    104.640  90.050  20.320
   H    107.510  92.380  18.200
   H    105.820  92.270  17.590
   H    106.970  90.940  17.580
   H    106.920  89.820  20.950
   H    107.160  89.250  19.400
   H    108.240  90.530  20.030
   H    104.830  94.800  19.870
   H    106.050  95.030  21.100
   H    104.430  95.000  21.570
   H    104.710  93.240  23.390
   H    105.710  91.860  23.070
   H    106.390  93.470  22.960
   H    103.120  93.070  21.080
   H    103.630  91.520  21.670
   H    99.620  91.170  16.510
   H    98.440  90.920  17.760
   H    100.670  89.430  15.120
   H    100.720  87.840  15.730
   H    101.720  89.040  16.380
   H    101.400  86.310  18.880
   H    103.120  88.470  20.330
   H    103.450  88.010  18.760
   H    106.180  86.240  20.690
   H    105.340  87.550  21.550
   H    105.790  87.740  19.910
   H    103.400  84.690  19.030
   H    104.160  85.990  18.060
   H    105.150  84.910  19.000
   H    101.960  83.640  21.930
   H    100.230  84.280  21.640
   H    101.330  83.900  20.410
   H    102.460  86.900  23.390
   H    100.810  86.480  23.300
   H    102.040  85.250  23.830
   H    101.060  87.660  21.450
   H    100.110  86.430  20.600
   H    98.350  89.400  15.290
   H    98.560  87.810  15.820
   H    96.720  87.470  14.770
   H    95.310  87.380  15.680
   H    96.710  86.410  16.260
   H    95.390  88.530  20.340
   H    98.360  88.650  21.120
   H    97.620  87.220  20.580
   H    95.560  86.190  23.140
   H    95.900  85.980  21.450
   H    94.790  87.220  21.910
   H    97.440  86.670  24.240
   H    98.740  87.520  23.540
   H    98.200  86.040  22.800
   H    97.160  90.940  24.410
   H    97.170  92.060  22.990
   H    98.270  90.780  23.070
   H    94.620  91.770  22.680
   H    94.570  90.800  24.120
   H    93.920  90.150  22.760
   H    97.150  90.900  20.870
   H    95.520  90.900  20.620
   H    94.890  89.530  17.000
   H    96.320  90.540  16.910
   H    97.060  90.040  13.860
   H    95.870  91.290  13.240
   H    96.890  91.650  14.610
   H    92.180  92.910  15.020
   H    94.600  94.730  14.200
   H    94.100  94.560  15.790
   H    93.100  97.870  15.590
   H    94.260  97.360  14.440
   H    94.280  96.860  16.150
   H    91.140  94.640  15.940
   H    92.260  95.520  17.020
   H    91.120  96.450  16.160
   H    91.640  96.200  10.880
   H    93.130  95.650  11.420
   H    91.900  94.610  10.490
   H    89.640  95.530  12.110
   H    89.530  94.640  13.470
   H    89.790  93.840  11.950
   H    92.950  93.090  12.170
   H    91.570  92.740  13.010
   H    93.570  88.820  14.800
   H    93.730  89.980  13.560
   H    94.950  88.680  13.540
  