239
PTMA_CHAIN9_time50
 C    94.420  46.410  70.690
   C    93.180  47.230  70.790
   C    93.510  48.450  71.770
   C    92.130  46.240  71.490
   O    91.790  46.330  72.680
   O    91.610  45.290  70.690
   C    91.230  43.990  71.130
   C    90.200  43.490  70.200
   C    89.770  42.050  70.650
   C    88.870  42.020  71.900
   C    88.880  41.450  69.470
   N    90.950  41.150  70.930
   O    90.720  39.950  70.850
   C    92.350  41.630  71.290
   C    92.550  41.260  72.810
   C    93.420  40.830  70.460
   C    92.500  43.150  71.040
   C    92.730  47.630  69.310
   C    91.740  48.830  69.140
   C    90.450  48.640  69.970
   C    92.440  50.200  69.350
   O    91.800  51.140  69.830
   O    93.720  50.210  69.040
   C    94.430  51.400  68.790
   C    94.770  52.150  70.070
   C    95.430  53.520  69.720
   C    94.340  54.520  69.290
   C    96.060  54.040  71.070
   N    96.450  53.430  68.630
   O    97.060  54.500  68.430
   C    96.610  52.190  67.810
   C    96.350  52.600  66.340
   C    98.120  51.750  67.830
   C    95.790  50.960  68.190
   C    91.210  48.730  67.670
   C    90.550  49.790  66.730
   C    89.720  48.840  65.850
   C    91.650  50.380  65.840
   O    92.860  50.370  66.060
   O    91.230  50.470  64.580
   C    92.160  50.940  63.560
   C    92.100  52.440  63.320
   C    92.980  52.900  62.140
   C    94.310  53.350  62.810
   C    92.390  54.230  61.530
   N    93.350  51.950  61.040
   O    94.070  52.280  60.090
   C    92.710  50.560  61.020
   C    93.750  49.480  61.050
   C    91.870  50.470  59.700
   C    91.730  50.330  62.220
   C    89.550  50.820  67.380
   C    89.510  52.410  67.030
   C    90.840  53.140  67.540
   C    89.360  52.690  65.510
   O    89.910  53.620  64.940
   O    88.450  51.920  64.900
   C    88.040  52.120  63.580
   C    87.520  50.820  63.090
   C    86.760  50.890  61.740
   C    85.960  49.590  61.440
   C    87.680  51.050  60.590
   N    85.870  52.090  61.650
   O    84.890  51.960  60.950
   C    86.160  53.340  62.330
   C    87.000  54.330  61.510
   C    84.800  54.000  62.610
   C    86.830  53.000  63.700
   C    88.280  53.160  67.680
   C    87.500  52.850  69.090
   C    86.430  53.940  69.240
   C    86.710  51.530  68.850
   O    85.670  51.480  68.170
   O    87.250  50.430  69.530
   C    86.440  49.210  69.550
   C    87.010  48.130  68.610
   C    86.360  46.720  68.750
   C    84.970  46.510  68.160
   C    87.240  45.620  67.960
   N    86.250  46.380  70.240
   O    86.300  45.180  70.580
   C    85.950  47.420  71.270
   C    86.670  46.970  72.520
   C    84.480  47.430  71.670
   C    86.490  48.790  71.010
   C    88.320  52.710  70.400
   C    88.810  53.910  71.350
   C    89.550  55.070  70.570
   C    89.690  53.230  72.420
   O    89.290  52.430  73.190
   O    90.980  53.720  72.470
   C    91.660  53.590  73.740
   C    92.780  52.600  73.710
   C    93.580  52.530  74.990
   C    95.070  52.380  74.720
   C    93.050  51.360  75.720
   N    93.480  53.720  75.940
   O    93.670  53.600  77.110
   C    93.030  55.020  75.360
   C    94.240  55.940  75.360
   C    92.020  55.720  76.230
   C    92.450  54.910  73.940
   C    87.710  54.610  72.180
   H    95.260  47.100  70.600
   H    94.590  45.900  71.630
   H    94.500  45.750  69.820
   H    94.180  49.140  71.260
   H    93.780  48.190  72.790
   H    92.530  48.920  71.900
   H    90.960  44.050  72.180
   H    89.350  44.170  70.280
   H    90.640  43.490  69.210
   H    88.060  42.720  71.710
   H    89.410  42.300  72.810
   H    88.490  41.020  72.100
   H    88.620  40.430  69.750
   H    89.440  41.380  68.540
   H    87.940  41.920  69.210
   H    92.170  40.290  73.150
   H    93.590  41.180  73.110
   H    92.030  41.960  73.470
   H    94.370  41.280  70.760
   H    93.380  40.850  69.370
   H    93.520  39.820  70.840
   H    93.020  43.420  70.120
   H    93.100  43.450  71.900
   H    93.600  47.780  68.660
   H    92.200  46.810  68.830
   H    90.040  47.640  69.870
   H    89.650  49.370  69.810
   H    90.650  48.720  71.040
   H    93.970  52.120  68.120
   H    93.920  52.160  70.750
   H    95.410  51.480  70.640
   H    94.780  55.510  69.260
   H    93.930  54.280  68.300
   H    93.520  54.630  70.000
   H    95.260  54.240  71.780
   H    96.680  54.910  70.830
   H    96.740  53.250  71.390
   H    96.860  51.950  65.630
   H    95.290  52.460  66.150
   H    96.640  53.630  66.130
   H    98.690  52.430  67.200
   H    98.570  51.800  68.830
   H    98.210  50.780  67.350
   H    96.340  50.350  68.900
   H    95.720  50.290  67.340
   H    90.610  47.830  67.860
   H    91.950  48.180  67.100
   H    89.070  48.170  66.410
   H    89.070  49.330  65.130
   H    90.340  48.210  65.210
   H    93.160  50.590  63.800
   H    92.250  53.040  64.220
   H    91.060  52.670  63.100
   H    94.070  54.220  63.420
   H    95.100  53.800  62.200
   H    94.810  52.610  63.440
   H    93.000  54.590  60.700
   H    91.400  54.080  61.090
   H    92.310  55.110  62.170
   H    94.300  49.480  60.110
   H    93.370  48.460  61.170
   H    94.530  49.590  61.810
   H    91.090  51.220  59.800
   H    92.500  50.800  58.870
   H    91.430  49.470  59.600
   H    91.580  49.250  62.320
   H    90.800  50.850  61.980
   H    89.680  50.790  68.460
   H    88.580  50.350  67.220
   H    91.020  53.020  68.610
   H    90.790  54.220  67.450
   H    91.710  52.750  67.010
   H    88.880  52.470  62.980
   H    86.840  50.440  63.860
   H    88.330  50.090  63.150
   H    85.620  49.540  60.410
   H    85.020  49.740  61.980
   H    86.440  48.720  61.890
   H    88.320  51.940  60.640
   H    88.490  50.330  60.490
   H    87.160  51.110  59.630
   H    87.230  55.280  62.000
   H    87.980  53.880  61.370
   H    86.620  54.480  60.500
   H    84.200  54.160  61.720
   H    84.180  53.460  63.330
   H    85.000  55.010  62.960
   H    86.120  52.450  64.320
   H    87.010  53.970  64.170
   H    88.470  54.230  67.640
   H    87.480  53.020  66.950
   H    86.970  54.870  69.420
   H    85.720  53.730  70.040
   H    85.970  54.100  68.270
   H    85.420  49.480  69.280
   H    88.080  47.970  68.760
   H    86.830  48.540  67.610
   H    84.970  46.780  67.100
   H    84.220  47.070  68.710
   H    84.620  45.500  68.330
   H    87.400  45.800  66.890
   H    86.840  44.620  68.160
   H    88.230  45.580  68.420
   H    86.340  45.970  72.820
   H    86.350  47.530  73.400
   H    87.740  47.110  72.620
   H    83.860  47.840  70.860
   H    84.290  47.920  72.630
   H    84.120  46.410  71.750
   H    87.550  48.770  71.270
   H    86.010  49.540  71.640
   H    87.710  52.250  71.180
   H    89.120  51.990  70.210
   H    88.970  55.370  69.690
   H    89.660  55.880  71.290
   H    90.590  54.910  70.290
   H    91.040  53.540  74.630
   H    93.500  52.850  72.930
   H    92.480  51.590  73.440
   H    95.080  51.330  74.410
   H    95.700  52.420  75.610
   H    95.420  52.990  73.890
   H    92.080  51.560  76.190
   H    93.190  50.380  75.270
   H    93.710  51.190  76.570
   H    94.550  56.080  76.390
   H    95.010  55.460  74.750
   H    94.210  56.950  74.930
   H    92.470  56.060  77.160
   H    91.330  54.920  76.480
   H    91.460  56.490  75.700
   H    93.270  55.070  73.240
   H    91.700  55.670  73.710
   H    88.050  55.100  73.090
   H    87.150  55.330  71.580
   H    86.960  53.860  72.430
  