239
PTMA_CHAIN7_time0point5
 C    102.360  10.910  16.760
   C    102.390  12.410  17.050
   C    103.420  12.550  18.200
   C    100.940  12.590  17.630
   O    100.640  12.070  18.700
   O    100.050  13.030  16.780
   C    98.640  12.910  17.030
   C    98.200  14.340  17.350
   C    96.610  14.510  17.550
   C    96.340  14.510  19.090
   C    96.050  15.770  17.000
   N    95.920  13.400  16.910
   O    94.940  12.840  17.500
   C    96.400  12.570  15.730
   C    95.770  11.140  15.640
   C    96.020  13.250  14.400
   C    98.020  12.440  15.750
   C    102.660  13.130  15.730
   C    103.270  14.600  15.670
   C    102.320  15.460  16.490
   C    104.780  14.540  16.120
   O    105.470  15.470  16.570
   O    105.210  13.340  15.960
   C    106.530  13.000  15.590
   C    106.670  11.440  15.650
   C    108.070  11.010  14.980
   C    108.690  10.070  16.020
   C    107.800  10.320  13.640
   N    108.990  12.130  14.730
   O    110.290  12.030  14.810
   C    108.500  13.460  14.130
   C    109.020  14.540  15.020
   C    108.930  13.690  12.730
   C    106.950  13.630  14.230
   C    103.270  15.040  14.150
   C    103.530  16.450  13.570
   C    102.090  16.920  13.170
   C    104.350  16.140  12.230
   O    105.120  15.150  12.270
   O    104.020  16.810  11.010
   C    104.480  16.340  9.770
   C    105.600  17.250  9.250
   C    105.570  17.560  7.660
   C    107.010  17.820  7.230
   C    104.740  18.890  7.420
   N    104.930  16.420  6.970
   O    105.390  16.080  5.850
   C    103.550  15.940  7.310
   C    103.450  14.360  7.240
   C    102.480  16.550  6.430
   C    103.260  16.320  8.830
   C    104.210  17.600  14.440
   C    105.300  18.640  14.000
   C    106.530  17.950  13.230
   C    104.800  19.730  13.010
   O    105.690  20.450  12.510
   O    103.500  19.730  12.560
   C    102.930  20.540  11.540
   C    102.210  19.720  10.550
   C    101.070  20.400  9.760
   C    99.760  19.760  10.250
   C    101.270  20.120  8.260
   N    101.040  21.820  9.940
   O    100.710  22.600  8.960
   C    101.220  22.400  11.320
   C    102.110  23.670  11.180
   C    99.820  22.950  11.740
   C    101.930  21.410  12.270
   C    105.920  19.480  15.200
   C    105.260  20.480  16.200
   C    106.230  21.600  16.700
   C    103.940  21.130  15.670
   O    103.950  22.330  15.460
   O    102.880  20.480  16.010
   C    101.830  21.240  16.670
   C    100.670  21.670  15.740
   C    99.650  22.430  16.580
   C    100.220  23.890  16.520
   C    98.280  22.390  15.780
   N    99.470  21.970  17.980
   O    99.000  22.780  18.890
   C    99.940  20.620  18.490
   C    98.910  19.580  18.110
   C    100.070  20.700  20.040
   C    101.320  20.230  17.770
   C    104.780  19.640  17.430
   C    105.690  19.000  18.540
   C    107.030  18.500  18.140
   C    104.900  17.690  19.010
   O    103.790  17.340  18.500
   O    105.580  17.030  19.940
   C    105.220  15.760  20.260
   C    106.150  14.870  19.410
   C    107.360  14.090  20.080
   C    108.490  14.010  19.070
   C    106.950  12.680  20.430
   N    107.900  14.800  21.330
   O    109.010  14.410  21.880
   C    106.940  15.540  22.280
   C    107.460  17.000  22.250
   C    106.990  14.950  23.680
   C    105.410  15.530  21.800
   C    105.860  19.930  19.770
   H    103.180  10.500  16.180
   H    102.210  10.380  17.700
   H    101.540  10.630  16.090
   H    104.420  12.130  18.060
   H    102.970  12.150  19.110
   H    103.570  13.610  18.420
   H    98.620  12.220  17.880
   H    98.790  14.950  18.030
   H    98.400  14.840  16.410
   H    96.870  13.740  19.650
   H    95.290  14.420  19.380
   H    96.690  15.420  19.570
   H    96.360  16.710  17.460
   H    94.980  15.800  17.200
   H    96.220  15.850  15.930
   H    94.770  11.410  15.300
   H    96.240  10.440  14.950
   H    95.930  10.610  16.580
   H    96.550  14.190  14.230
   H    94.940  13.380  14.320
   H    96.270  12.620  13.550
   H    98.440  12.910  14.860
   H    98.390  11.420  15.610
   H    103.240  12.470  15.080
   H    101.720  13.100  15.170
   H    102.640  16.500  16.420
   H    102.240  15.230  17.550
   H    101.290  15.390  16.120
   H    107.140  13.390  16.410
   H    106.630  10.970  16.630
   H    105.910  10.920  15.070
   H    108.740  10.460  17.040
   H    108.110  9.150  16.070
   H    109.690  9.770  15.710
   H    108.730  9.920  13.230
   H    107.330  11.030  12.960
   H    107.120  9.480  13.810
   H    110.000  14.230  15.400
   H    109.390  15.430  14.510
   H    108.370  14.750  15.870
   H    109.950  13.360  12.520
   H    108.370  13.030  12.070
   H    108.830  14.690  12.300
   H    106.400  13.140  13.430
   H    106.780  14.700  14.150
   H    102.320  14.650  13.790
   H    103.940  14.280  13.740
   H    101.900  17.960  13.420
   H    101.700  16.800  12.160
   H    101.330  16.340  13.700
   H    104.930  15.370  10.000
   H    106.590  16.860  9.520
   H    105.680  18.230  9.720
   H    106.960  18.050  6.160
   H    107.640  16.930  7.310
   H    107.490  18.550  7.880
   H    103.760  18.890  7.910
   H    105.290  19.750  7.780
   H    104.740  19.000  6.340
   H    102.680  13.830  7.800
   H    104.350  13.980  7.740
   H    103.510  14.030  6.210
   H    102.500  17.640  6.430
   H    102.480  16.380  5.350
   H    101.490  16.320  6.830
   H    102.480  15.600  9.040
   H    102.810  17.300  8.970
   H    104.660  17.160  15.330
   H    103.440  18.210  14.900
   H    106.600  16.930  13.610
   H    107.470  18.440  13.480
   H    106.440  17.920  12.150
   H    103.730  21.140  11.100
   H    101.650  18.980  11.130
   H    102.910  19.170  9.920
   H    99.660  19.790  11.330
   H    99.680  18.730  9.910
   H    98.910  20.310  9.840
   H    100.420  20.500  7.680
   H    102.180  20.650  7.980
   H    101.520  19.090  8.010
   H    102.370  24.100  12.150
   H    103.080  23.470  10.720
   H    101.710  24.520  10.630
   H    99.090  22.160  11.600
   H    99.760  23.050  12.820
   H    99.530  23.870  11.240
   H    101.170  20.920  12.880
   H    102.340  22.060  13.040
   H    106.590  18.780  15.700
   H    106.680  20.100  14.720
   H    107.240  21.260  16.940
   H    105.890  22.140  17.580
   H    106.390  22.300  15.880
   H    102.220  22.190  17.050
   H    100.230  20.800  15.260
   H    101.010  22.270  14.890
   H    100.210  24.250  15.490
   H    101.260  24.090  16.740
   H    99.650  24.610  17.120
   H    97.410  22.430  16.450
   H    98.130  21.550  15.110
   H    98.290  23.240  15.090
   H    97.930  19.970  18.390
   H    99.110  18.600  18.540
   H    98.970  19.410  17.030
   H    100.670  21.560  20.370
   H    100.670  19.850  20.380
   H    99.080  20.750  20.490
   H    101.190  19.280  17.260
   H    101.930  20.090  18.670
   H    104.110  20.270  18.000
   H    104.220  18.790  17.020
   H    107.560  19.300  17.630
   H    107.590  18.190  19.030
   H    106.990  17.630  17.480
   H    104.170  15.550  20.050
   H    106.570  15.510  18.630
   H    105.630  14.220  18.700
   H    108.580  15.000  18.610
   H    108.240  13.300  18.280
   H    109.400  13.750  19.600
   H    106.450  12.180  19.610
   H    107.840  12.090  20.670
   H    106.310  12.680  21.320
   H    106.710  17.730  22.570
   H    108.270  17.170  22.960
   H    107.740  17.340  21.260
   H    106.170  15.090  24.390
   H    107.780  15.340  24.320
   H    107.230  13.890  23.690
   H    104.850  16.240  22.410
   H    104.940  14.570  22.040
   H    104.900  20.140  20.240
   H    106.490  19.490  20.540
   H    106.250  20.890  19.430
  