239
PTMA_CHAIN3_time10
 C    85.530  47.170  56.430
   C    86.530  48.060  57.190
   C    87.940  47.520  56.850
   C    86.110  47.920  58.720
   O    86.910  47.410  59.480
   O    84.970  48.540  59.040
   C    84.430  48.340  60.330
   C    84.790  49.520  61.200
   C    84.140  49.440  62.570
   C    85.150  49.150  63.710
   C    83.630  50.810  62.980
   N    83.110  48.450  62.650
   H    82.830  48.080  63.630
   C    82.190  48.110  61.540
   C    81.760  46.650  61.700
   C    80.980  49.010  61.690
   C    82.890  48.370  60.200
   C    86.190  49.550  56.670
   C    87.020  50.840  57.060
   C    86.990  51.030  58.590
   C    88.500  50.630  56.580
   O    89.490  50.590  57.320
   O    88.600  50.570  55.310
   C    89.830  50.140  54.760
   C    89.460  49.630  53.430
   C    90.640  49.130  52.620
   C    90.850  47.570  52.760
   C    90.510  49.550  51.140
   N    91.930  49.820  53.020
   H    92.840  49.470  52.520
   C    92.170  50.640  54.290
   C    92.800  49.790  55.440
   C    93.190  51.740  53.890
   C    90.820  51.200  54.680
   C    86.280  52.000  56.280
   C    86.710  53.560  56.350
   C    85.730  54.240  57.310
   C    86.540  54.120  54.920
   O    87.060  53.590  53.940
   O    85.760  55.140  54.900
   C    85.240  55.710  53.720
   C    85.510  57.160  53.950
   C    84.990  58.060  52.840
   C    86.100  58.270  51.800
   C    84.470  59.320  53.390
   N    83.900  57.370  52.100
   H    83.670  57.700  51.080
   C    83.010  56.410  52.720
   C    82.430  55.450  51.580
   C    81.800  57.240  53.350
   C    83.710  55.530  53.820
   C    88.290  53.720  56.740
   C    88.960  55.090  57.140
   C    88.650  56.140  56.090
   C    88.460  55.680  58.500
   O    88.680  56.880  58.760
   O    87.800  54.860  59.290
   C    87.810  54.930  60.750
   C    86.430  55.470  61.080
   C    86.390  55.600  62.610
   C    84.950  55.260  63.130
   C    86.800  57.100  63.000
   N    87.310  54.650  63.320
   H    87.550  54.880  64.350
   C    87.980  53.510  62.730
   C    89.410  53.590  63.230
   C    87.300  52.250  63.320
   C    87.870  53.510  61.200
   C    90.520  54.870  57.170
   C    91.710  55.800  57.820
   C    91.610  57.220  57.310
   C    91.590  55.880  59.380
   O    90.950  55.080  60.020
   O    92.080  57.140  59.930
   C    91.580  57.610  61.140
   C    92.400  57.180  62.350
   C    91.900  57.780  63.660
   C    91.160  56.650  64.380
   C    93.010  58.430  64.520
   N    90.830  58.800  63.360
   H    90.170  58.990  64.210
   C    90.860  59.740  62.210
   C    91.500  61.060  62.660
   C    89.350  60.030  61.780
   C    91.630  59.110  61.010
   C    93.020  55.280  57.340
   C    93.840  54.200  58.100
   C    95.040  53.810  57.210
   C    93.020  52.930  58.140
   O    92.520  52.510  57.090
   O    93.020  52.290  59.260
   C    92.320  51.070  59.420
   C    93.180  49.840  59.280
   C    92.460  48.470  59.480
   C    93.510  47.340  59.710
   C    91.570  48.070  58.260
   N    91.630  48.510  60.750
   O    91.100  47.470  61.090
   C    91.180  49.790  61.340
   C    91.320  49.680  62.910
   C    89.640  49.940  61.080
   C    91.910  51.010  60.830
   C    94.470  54.530  59.440
   H    84.540  47.630  56.440
   H    85.860  47.120  55.400
   H    85.490  46.200  56.920
   H    88.820  48.040  57.230
   H    88.060  47.340  55.790
   H    88.000  46.490  57.190
   H    84.890  47.390  60.600
   H    85.860  49.690  61.340
   H    84.400  50.390  60.670
   H    85.620  48.170  63.650
   H    84.650  49.150  64.680
   H    85.930  49.900  63.820
   H    83.260  50.710  64.000
   H    82.860  51.230  62.330
   H    84.390  51.580  62.920
   H    80.940  46.440  61.010
   H    82.550  45.960  61.430
   H    81.410  46.430  62.710
   H    80.210  48.690  60.990
   H    81.010  50.080  61.480
   H    80.580  48.960  62.700
   H    82.620  49.340  59.770
   H    82.660  47.600  59.470
   H    86.240  49.530  55.580
   H    85.140  49.730  56.850
   H    87.520  50.210  59.080
   H    85.970  51.140  58.950
   H    87.580  51.910  58.850
   H    90.270  49.320  55.330
   H    88.810  48.770  53.650
   H    88.820  50.320  52.890
   H    91.480  47.140  51.970
   H    91.200  47.250  53.740
   H    89.850  47.170  52.570
   H    90.250  50.600  51.010
   H    89.730  49.050  50.550
   H    91.410  49.350  50.560
   H    92.660  48.750  55.140
   H    93.860  49.980  55.580
   H    92.330  50.050  56.380
   H    93.640  52.350  54.680
   H    94.000  51.350  53.290
   H    92.760  52.430  53.160
   H    90.580  52.060  54.050
   H    91.030  51.520  55.700
   H    85.270  51.950  56.690
   H    86.370  51.790  55.210
   H    84.680  54.120  57.050
   H    85.820  53.910  58.350
   H    85.780  55.330  57.400
   H    85.610  55.210  52.830
   H    86.540  57.380  54.230
   H    85.030  57.360  54.900
   H    85.730  58.890  50.970
   H    86.610  57.380  51.440
   H    86.860  58.870  52.290
   H    83.970  59.870  52.590
   H    83.860  59.250  54.280
   H    85.270  59.990  53.720
   H    81.560  54.910  51.950
   H    83.130  54.630  51.420
   H    82.190  55.880  50.610
   H    81.190  57.720  52.580
   H    81.220  56.560  53.980
   H    81.980  58.050  54.060
   H    83.340  54.510  53.720
   H    83.470  55.980  54.780
   H    88.940  53.290  55.990
   H    88.510  53.080  57.590
   H    89.090  57.120  56.250
   H    87.590  56.350  56.070
   H    88.960  55.880  55.070
   H    88.650  55.490  61.160
   H    85.630  54.860  60.650
   H    86.200  56.400  60.570
   H    84.210  55.980  62.780
   H    84.790  55.380  64.200
   H    84.630  54.240  62.930
   H    86.710  57.290  64.070
   H    87.840  57.240  62.720
   H    85.990  57.630  62.490
   H    90.050  52.780  62.860
   H    90.000  54.460  62.960
   H    89.510  53.500  64.310
   H    87.740  51.330  62.920
   H    87.470  52.120  64.380
   H    86.220  52.280  63.160
   H    87.090  52.940  60.690
   H    88.820  53.200  60.780
   H    90.560  54.010  57.830
   H    90.910  54.390  56.270
   H    92.530  57.760  57.560
   H    90.760  57.720  57.770
   H    91.390  57.260  56.250
   H    90.530  57.300  61.150
   H    93.450  57.470  62.270
   H    92.440  56.090  62.370
   H    90.280  56.470  63.760
   H    90.670  57.020  65.290
   H    91.640  55.680  64.490
   H    93.800  57.710  64.740
   H    92.750  58.910  65.460
   H    93.580  59.260  64.100
   H    91.020  61.570  63.490
   H    91.510  61.660  61.750
   H    92.560  60.910  62.890
   H    88.900  59.120  61.380
   H    89.300  60.890  61.100
   H    88.710  60.290  62.620
   H    92.670  59.440  61.040
   H    91.190  59.380  60.050
   H    92.960  54.900  56.320
   H    93.800  56.030  57.240
   H    94.790  53.680  56.150
   H    95.800  54.590  57.140
   H    95.620  52.970  57.600
   H    91.420  51.010  58.810
   H    94.120  49.850  59.830
   H    93.530  49.930  58.250
   H    93.030  46.370  59.790
   H    94.090  47.490  60.620
   H    94.230  47.320  58.890
   H    91.250  48.950  57.720
   H    92.000  47.400  57.520
   H    90.620  47.700  58.650
   H    92.330  49.820  63.300
   H    90.740  50.380  63.500
   H    91.170  48.650  63.240
   H    89.240  50.860  61.510
   H    89.060  49.050  61.330
   H    89.420  50.000  60.020
   H    92.770  51.180  61.480
   H    91.310  51.890  61.070
   H    93.790  54.320  60.270
   H    95.390  53.990  59.680
   H    94.650  55.610  59.430
  