239
PTMA_CHAIN3_time0point0005
 C    105.500  54.520  68.860
   C    106.340  55.830  68.820
   C    107.810  55.400  68.760
   C    106.060  56.520  70.170
   O    106.880  56.600  71.080
   O    104.760  56.880  70.280
   C    104.240  57.120  71.610
   C    104.550  58.520  72.110
   C    104.040  58.710  73.570
   C    105.160  58.230  74.530
   C    103.850  60.230  73.800
   N    102.840  57.850  73.850
   H    102.300  58.180  74.740
   C    101.930  57.570  72.690
   C    100.840  56.540  73.110
   C    101.180  58.820  72.160
   C    102.730  56.910  71.540
   C    105.860  56.650  67.580
   C    106.750  57.770  66.920
   C    107.170  58.790  67.990
   C    107.960  57.130  66.220
   O    109.120  57.510  66.350
   O    107.570  56.110  65.400
   C    108.530  55.540  64.470
   C    108.990  54.160  64.940
   C    108.280  52.960  64.250
   C    108.960  51.670  64.810
   C    106.810  52.880  64.740
   N    108.220  53.080  62.770
   O    109.010  52.090  62.100
   C    108.440  54.420  62.160
   C    109.910  54.790  61.820
   C    107.620  54.480  60.840
   C    107.860  55.510  63.090
   C    105.860  58.440  65.790
   C    106.100  59.870  65.120
   C    105.420  60.920  66.030
   C    105.350  59.680  63.780
   O    105.780  58.940  62.890
   O    104.140  60.270  63.730
   C    103.280  59.890  62.610
   C    103.670  60.610  61.330
   C    102.780  60.200  60.130
   C    103.180  58.780  59.670
   C    103.150  61.190  58.980
   N    101.340  60.390  60.480
   H    100.670  60.060  59.680
   C    100.850  59.920  61.800
   C    100.540  58.410  61.910
   C    99.530  60.680  62.130
   C    101.850  60.310  62.940
   C    107.620  60.250  64.890
   C    108.220  61.230  63.800
   C    107.820  60.800  62.370
   C    107.860  62.730  63.790
   O    108.600  63.560  63.280
   O    106.600  62.990  64.200
   C    106.080  64.310  63.860
   C    104.570  64.240  63.600
   C    103.670  65.060  64.560
   C    103.530  64.330  65.920
   C    102.230  65.010  63.960
   N    104.210  66.410  64.850
   O    103.440  67.470  64.250
   C    105.670  66.660  64.730
   C    106.110  67.310  63.390
   C    106.080  67.600  65.880
   C    106.460  65.330  64.910
   C    109.810  61.100  63.800
   C    110.770  61.480  64.980
   C    112.090  61.950  64.300
   C    110.330  62.740  65.770
   O    110.540  63.890  65.390
   O    109.770  62.440  66.970
   C    110.010  63.440  68.000
   C    108.890  64.460  68.100
   C    109.280  65.590  69.110
   C    110.060  66.680  68.310
   C    107.970  66.230  69.620
   N    110.220  65.080  70.170
   H    110.290  65.760  71.020
   C    110.050  63.650  70.580
   C    108.720  63.350  71.320
   C    111.200  63.220  71.520
   C    110.130  62.700  69.340
   C    111.090  60.290  65.970
   C    112.130  59.140  65.680
   C    111.810  58.390  64.380
   C    112.130  58.170  66.900
   O    112.030  58.550  68.060
   O    112.460  56.910  66.530
   C    112.890  55.980  67.560
   C    112.380  54.590  67.200
   C    112.970  53.460  68.090
   C    112.710  52.140  67.320
   C    112.160  53.410  69.400
   N    114.380  53.730  68.490
   O    115.100  52.520  68.750
   C    115.170  54.680  67.650
   C    115.440  54.180  66.210
   C    116.560  54.970  68.300
   C    114.430  56.030  67.630
   C    113.590  59.630  65.660
   H    105.730  53.900  68.000
   H    105.710  53.950  69.760
   H    104.430  54.730  68.860
   H    108.030  54.840  67.850
   H    108.070  54.770  69.610
   H    108.490  56.250  68.810
   H    104.680  56.380  72.280
   H    105.620  58.740  72.040
   H    104.090  59.250  71.440
   H    105.380  57.160  74.410
   H    104.910  58.420  75.570
   H    106.100  58.750  74.330
   H    104.760  60.760  73.530
   H    103.660  60.470  74.850
   H    103.040  60.670  73.210
   H    100.110  56.950  73.810
   H    100.290  56.210  72.230
   H    101.300  55.660  73.550
   H    101.870  59.540  71.700
   H    100.630  59.340  72.950
   H    100.480  58.520  71.380
   H    102.370  57.300  70.590
   H    102.570  55.830  71.490
   H    105.610  55.940  66.800
   H    104.920  57.110  67.870
   H    107.820  59.570  67.600
   H    107.760  58.320  68.780
   H    106.290  59.230  68.470
   H    109.400  56.180  64.410
   H    110.060  54.080  64.750
   H    108.890  54.070  66.020
   H    110.020  51.650  64.540
   H    108.880  51.640  65.900
   H    108.480  50.760  64.440
   H    106.300  52.010  64.320
   H    106.220  53.750  64.470
   H    106.760  52.800  65.830
   H    109.980  55.820  61.500
   H    110.570  54.660  62.680
   H    110.310  54.170  61.020
   H    108.030  53.810  60.090
   H    106.570  54.240  61.010
   H    107.620  55.480  60.410
   H    106.780  55.380  63.180
   H    107.970  56.500  62.650
   H    104.830  58.450  66.150
   H    105.810  57.710  64.980
   H    106.040  61.190  66.890
   H    105.180  61.830  65.470
   H    104.470  60.560  66.400
   H    103.340  58.810  62.510
   H    104.720  60.410  61.100
   H    103.640  61.690  61.490
   H    102.620  58.480  58.790
   H    103.020  58.020  60.430
   H    104.240  58.740  59.410
   H    102.870  62.210  59.220
   H    104.220  61.180  58.780
   H    102.650  60.940  58.040
   H    100.150  58.160  62.900
   H    101.410  57.770  61.770
   H    99.790  58.100  61.190
   H    99.670  61.760  62.060
   H    98.720  60.410  61.450
   H    99.190  60.460  63.140
   H    101.550  59.860  63.890
   H    101.820  61.380  63.100
   H    108.130  59.300  64.700
   H    108.000  60.620  65.840
   H    107.980  59.740  62.200
   H    108.430  61.310  61.620
   H    106.790  61.050  62.120
   H    106.520  64.610  62.910
   H    104.250  63.190  63.590
   H    104.410  64.610  62.590
   H    103.180  63.310  65.790
   H    102.840  64.840  66.590
   H    104.470  64.270  66.470
   H    101.500  65.520  64.590
   H    102.190  65.450  62.970
   H    101.920  63.970  63.860
   H    107.200  67.350  63.300
   H    105.730  66.770  62.520
   H    105.770  68.340  63.300
   H    105.780  67.200  66.840
   H    107.160  67.750  65.900
   H    105.620  68.590  65.810
   H    106.340  64.940  65.920
   H    107.530  65.540  64.820
   H    110.030  60.070  63.510
   H    110.150  61.660  62.930
   H    112.490  61.200  63.620
   H    112.860  62.200  65.030
   H    111.950  62.850  63.700
   H    110.970  63.930  67.800
   H    107.980  63.950  68.400
   H    108.700  64.880  67.110
   H    109.450  67.060  67.490
   H    110.980  66.300  67.890
   H    110.320  67.550  68.920
   H    107.350  66.540  68.780
   H    108.160  67.120  70.220
   H    107.370  65.560  70.240
   H    108.570  64.000  72.190
   H    108.690  62.330  71.700
   H    107.850  63.470  70.680
   H    112.180  63.420  71.080
   H    111.150  62.150  71.730
   H    111.170  63.720  72.480
   H    109.380  61.920  69.380
   H    111.090  62.180  69.320
   H    111.440  60.750  66.900
   H    110.140  59.820  66.230
   H    111.940  59.030  63.500
   H    112.470  57.540  64.230
   H    110.780  58.030  64.380
   H    112.450  56.250  68.520
   H    112.580  54.420  66.140
   H    111.290  54.590  67.270
   H    113.310  52.090  66.410
   H    111.660  52.060  67.030
   H    112.910  51.260  67.930
   H    112.460  52.580  70.040
   H    112.260  54.330  69.980
   H    111.090  53.270  69.200
   H    116.050  54.910  65.670
   H    115.990  53.240  66.190
   H    114.530  54.050  65.620
   H    117.060  55.780  67.770
   H    117.220  54.100  68.260
   H    116.450  55.250  69.350
   H    114.810  56.660  66.820
   H    114.660  56.600  68.530
   H    113.790  60.370  66.430
   H    114.290  58.810  65.840
   H    113.860  60.080  64.700
  