239
PTMA_CHAIN5_time500
 C    85.240  63.610  68.440
   C    86.250  63.990  67.350
   C    85.530  64.740  66.160
   C    86.710  62.590  66.730
   O    86.380  61.450  67.110
   O    87.330  62.740  65.550
   C    88.140  61.750  65.050
   C    87.420  60.780  64.070
   C    88.320  59.590  63.680
   C    88.230  58.430  64.790
   C    87.870  58.890  62.310
   N    89.770  60.010  63.570
   O    90.700  59.240  63.650
   C    90.120  61.460  63.310
   C    91.520  61.880  63.710
   C    89.850  61.720  61.780
   C    89.210  62.430  64.170
   C    87.560  64.630  67.840
   C    87.700  65.990  68.520
   C    87.140  67.210  67.650
   C    86.830  66.050  69.850
   O    86.060  66.980  70.080
   O    86.810  64.940  70.660
   C    85.860  64.710  71.680
   C    85.830  63.270  72.010
   C    84.780  62.880  73.060
   C    83.420  62.770  72.270
   C    85.170  61.490  73.660
   N    84.670  63.870  74.180
   O    84.140  63.530  75.240
   C    85.100  65.320  74.060
   C    83.860  66.160  73.870
   C    85.800  65.680  75.420
   C    86.100  65.570  72.960
   C    89.320  66.210  68.620
   C    90.100  66.630  69.920
   C    91.550  66.580  69.420
   C    89.940  65.480  70.980
   O    89.680  64.380  70.570
   O    90.420  65.720  72.200
   C    90.600  64.750  73.200
   C    90.600  65.480  74.520
   C    90.710  64.520  75.730
   C    89.210  64.300  76.080
   C    91.390  65.140  77.010
   N    91.350  63.170  75.340
   O    91.030  62.120  75.910
   C    92.410  63.150  74.220
   C    92.830  61.680  73.750
   C    93.680  63.740  74.740
   C    91.960  64.020  72.990
   C    89.700  68.120  70.360
   C    89.630  68.700  71.790
   C    88.450  68.000  72.560
   C    90.990  68.570  72.540
   O    90.940  68.830  73.800
   O    92.040  68.650  71.770
   C    93.420  68.720  72.210
   C    93.820  69.360  73.520
   C    95.340  69.520  73.740
   C    95.560  69.890  75.250
   C    95.930  70.720  72.930
   N    96.110  68.320  73.300
   O    97.240  68.050  73.680
   C    95.540  67.300  72.280
   C    96.070  67.600  70.850
   C    95.790  65.880  72.800
   C    94.020  67.360  72.180
   C    89.160  70.190  71.690
   C    90.080  71.510  71.460
   C    90.360  72.000  72.920
   C    91.460  71.290  70.740
   O    92.550  71.440  71.310
   O    91.260  71.110  69.440
   C    92.360  71.030  68.660
   C    92.040  70.200  67.450
   C    93.230  69.850  66.610
   C    94.100  68.750  67.300
   C    92.770  69.160  65.320
   N    94.150  71.030  66.400
   O    94.900  71.040  65.450
   C    94.210  72.250  67.340
   C    94.480  73.590  66.550
   C    95.380  71.960  68.230
   C    92.920  72.420  68.220
   C    89.360  72.830  70.760
   C    87.820  72.850  70.630
   C    86.910  72.470  71.840
   C    87.350  72.010  69.390
   O    88.060  71.130  68.880
   O    85.960  72.270  69.040
   C    85.190  71.370  68.270
   C    83.890  71.000  68.930
   C    82.830  70.260  68.080
   C    81.480  70.430  68.790
   C    82.980  68.710  68.210
   N    82.880  70.670  66.610
   O    81.820  70.700  65.980
   C    84.100  71.150  65.930
   C    83.790  71.970  64.630
   C    84.870  69.870  65.320
   C    84.940  72.050  66.910
   C    87.630  74.300  70.240
   H    84.780  64.480  68.910
   H    84.430  63.100  67.910
   H    85.720  62.940  69.150
   H    84.900  65.570  66.490
   H    84.810  64.180  65.550
   H    86.240  65.230  65.490
   H    88.760  61.230  65.780
   H    86.570  60.330  64.600
   H    87.030  61.350  63.230
   H    88.400  58.850  65.780
   H    88.870  57.550  64.690
   H    87.230  57.990  64.810
   H    88.010  57.820  62.440
   H    88.490  59.290  61.500
   H    86.870  59.200  62.020
   H    91.740  61.700  64.760
   H    92.320  61.560  63.040
   H    91.590  62.960  63.550
   H    88.820  61.590  61.460
   H    90.280  60.860  61.270
   H    90.330  62.630  61.420
   H    88.690  63.120  63.510
   H    89.760  62.990  64.930
   H    88.040  63.900  68.490
   H    88.170  64.710  66.940
   H    86.070  67.020  67.610
   H    87.520  67.040  66.640
   H    87.240  68.210  68.070
   H    84.910  64.900  71.190
   H    85.690  62.620  71.150
   H    86.820  63.040  72.390
   H    83.470  62.100  71.420
   H    82.750  62.430  73.060
   H    83.020  63.690  71.840
   H    84.330  60.920  74.060
   H    85.920  61.660  74.430
   H    85.550  60.810  72.890
   H    83.180  66.040  74.710
   H    84.110  67.220  73.880
   H    83.420  65.950  72.890
   H    86.760  65.170  75.510
   H    86.060  66.740  75.350
   H    85.270  65.520  76.360
   H    87.100  65.350  73.340
   H    86.120  66.620  72.680
   H    89.610  66.950  67.870
   H    89.820  65.310  68.260
   H    91.930  65.560  69.380
   H    91.620  66.850  68.370
   H    92.300  67.220  69.870
   H    89.850  63.960  73.230
   H    89.770  66.190  74.560
   H    91.530  66.040  74.480
   H    88.590  64.050  75.220
   H    88.850  65.220  76.530
   H    89.100  63.550  76.860
   H    91.240  66.200  77.240
   H    91.110  64.520  77.860
   H    92.470  65.120  76.860
   H    93.560  61.230  74.420
   H    93.230  61.770  72.740
   H    91.900  61.110  73.680
   H    93.540  64.790  75.030
   H    94.040  63.150  75.580
   H    94.430  63.820  73.950
   H    91.840  63.440  72.070
   H    92.700  64.760  72.690
   H    88.690  68.350  70.010
   H    90.250  68.830  69.740
   H    87.570  68.180  71.950
   H    88.320  68.580  73.460
   H    88.580  66.940  72.790
   H    93.890  69.370  71.470
   H    93.410  68.810  74.360
   H    93.490  70.400  73.570
   H    95.090  70.840  75.490
   H    96.570  69.980  75.640
   H    95.050  69.140  75.850
   H    95.860  71.610  73.550
   H    97.010  70.720  72.750
   H    95.410  70.870  71.980
   H    97.060  67.230  70.570
   H    95.390  67.340  70.040
   H    96.100  68.690  70.800
   H    95.350  65.150  72.120
   H    96.860  65.730  72.970
   H    95.330  65.860  73.790
   H    93.620  66.800  73.020
   H    93.700  66.630  71.440
   H    88.340  70.280  70.980
   H    88.680  70.510  72.610
   H    90.840  72.970  73.010
   H    91.120  71.430  73.450
   H    89.530  72.120  73.610
   H    93.130  70.500  69.210
   H    91.290  70.700  66.830
   H    91.620  69.260  67.810
   H    94.990  69.110  67.810
   H    94.510  67.960  66.660
   H    93.620  68.190  68.100
   H    92.040  68.380  65.510
   H    93.510  68.770  64.620
   H    92.240  69.880  64.700
   H    94.140  74.470  67.090
   H    93.990  73.510  65.580
   H    95.550  73.790  66.460
   H    95.590  72.870  68.780
   H    96.340  71.870  67.720
   H    95.270  71.210  69.010
   H    92.220  72.940  67.570
   H    93.030  73.020  69.120
   H    89.710  73.700  71.310
   H    89.790  73.100  69.790
   H    86.020  73.100  71.900
   H    86.690  71.420  72.020
   H    87.480  72.820  72.710
   H    85.830  70.510  68.080
   H    83.480  71.990  69.140
   H    84.140  70.560  69.890
   H    81.410  70.110  69.830
   H    80.690  69.920  68.230
   H    81.250  71.480  68.560
   H    82.220  68.210  67.600
   H    83.910  68.450  67.700
   H    82.980  68.220  69.180
   H    83.400  71.330  63.830
   H    83.020  72.720  64.760
   H    84.630  72.540  64.230
   H    84.250  69.300  64.630
   H    85.360  69.270  66.090
   H    85.590  70.340  64.650
   H    84.340  72.960  67.030
   H    85.860  72.290  66.380
   H    88.010  74.540  69.250
   H    86.580  74.560  70.080
   H    88.040  75.000  70.970
  