239
PTMA_CHAIN8_time18
 C    60.300  40.490  58.240
   C    60.310  39.100  58.870
   C    58.900  38.840  59.370
   C    61.270  39.160  60.150
   O    60.880  39.040  61.330
   O    62.560  39.510  59.790
   C    63.580  39.750  60.750
   C    64.330  38.570  61.150
   C    65.740  38.920  61.620
   C    66.040  38.210  63.010
   C    66.830  38.480  60.590
   N    65.840  40.390  61.850
   H    66.080  40.650  62.880
   C    65.580  41.380  60.810
   C    65.120  42.720  61.530
   C    66.860  41.710  60.100
   C    64.470  40.770  59.950
   C    60.700  38.080  57.760
   C    60.470  36.520  57.850
   C    61.000  36.050  59.200
   C    59.000  36.190  57.750
   O    58.520  35.330  58.500
   O    58.260  36.790  56.730
   C    56.860  36.340  56.470
   C    55.880  37.010  57.370
   C    54.440  36.750  57.050
   C    53.870  35.750  58.060
   C    53.530  37.930  57.110
   N    54.280  36.140  55.700
   H    53.360  35.560  55.670
   C    55.270  36.090  54.640
   C    55.550  34.630  54.360
   C    54.640  36.800  53.460
   C    56.580  36.710  55.020
   C    61.350  35.780  56.740
   C    60.920  34.490  56.000
   C    62.130  34.130  55.140
   C    59.710  34.750  55.030
   O    58.670  34.060  54.990
   O    60.030  35.570  54.040
   C    59.340  35.770  52.750
   C    59.990  34.870  51.810
   C    59.530  35.030  50.380
   C    58.560  33.820  50.090
   C    60.760  34.810  49.390
   N    58.770  36.300  50.090
   H    57.990  36.210  49.340
   C    59.030  37.520  50.880
   C    57.800  38.360  51.020
   C    59.990  38.470  50.090
   C    59.660  37.210  52.320
   C    60.620  33.340  56.960
   C    60.560  31.810  56.650
   C    59.920  31.420  55.290
   C    62.040  31.130  56.650
   O    63.020  31.860  56.930
   O    62.060  29.910  56.180
   C    63.200  29.200  55.960
   C    63.500  28.340  57.140
   C    64.590  27.320  56.980
   C    64.030  25.880  57.400
   C    65.710  27.810  57.850
   N    65.120  27.250  55.650
   H    66.110  26.810  55.530
   C    64.350  27.640  54.410
   C    65.100  28.550  53.450
   C    64.060  26.320  53.750
   C    63.050  28.380  54.740
   C    59.770  31.050  57.740
   C    59.990  30.890  59.270
   C    59.220  29.650  59.620
   C    61.450  30.640  59.660
   O    61.920  29.540  59.660
   O    62.110  31.780  59.910
   C    63.490  31.880  60.340
   C    64.000  33.130  59.800
   C    65.440  33.340  60.210
   C    66.350  32.930  59.020
   C    65.680  34.780  60.540
   N    65.880  32.510  61.360
   H    66.920  32.620  61.640
   C    64.940  32.030  62.400
   C    64.980  32.920  63.610
   C    65.490  30.680  62.830
   C    63.500  31.970  61.880
   C    59.600  32.180  60.090
   C    58.170  32.500  60.570
   C    57.040  32.470  59.450
   C    58.250  33.920  61.210
   O    59.310  34.450  61.590
   O    56.940  34.410  61.460
   C    56.780  35.450  62.390
   C    56.400  36.740  61.700
   C    56.110  37.970  62.610
   C    55.410  39.080  61.660
   C    57.410  38.560  63.240
   N    55.170  37.580  63.780
   O    54.540  38.470  64.350
   C    55.240  36.250  64.370
   C    53.910  35.830  65.090
   C    56.350  36.200  65.480
   C    55.580  35.140  63.360
   C    57.740  31.530  61.750
   H    59.760  40.390  57.300
   H    59.730  41.240  58.800
   H    61.300  40.850  58.020
   H    58.520  39.610  60.060
   H    58.680  37.820  59.700
   H    58.190  38.930  58.550
   H    63.100  40.260  61.590
   H    63.800  38.090  61.970
   H    64.340  37.820  60.350
   H    65.900  37.130  62.980
   H    65.550  38.670  63.860
   H    67.100  38.300  63.240
   H    67.800  38.910  60.860
   H    66.640  38.700  59.540
   H    67.040  37.420  60.680
   H    65.710  42.940  62.420
   H    65.060  43.470  60.750
   H    64.100  42.550  61.900
   H    67.090  40.920  59.390
   H    67.760  41.720  60.720
   H    66.860  42.670  59.570
   H    64.880  40.240  59.090
   H    63.800  41.540  59.560
   H    60.200  38.280  56.820
   H    61.770  38.170  57.560
   H    61.950  36.550  59.370
   H    61.280  35.000  59.240
   H    60.320  36.200  60.030
   H    56.860  35.260  56.610
   H    56.030  36.880  58.440
   H    55.980  38.080  57.190
   H    53.910  36.000  59.110
   H    52.820  35.560  57.830
   H    54.390  34.790  57.950
   H    53.860  38.670  56.380
   H    53.400  38.350  58.110
   H    52.470  37.790  56.900
   H    56.420  34.570  53.700
   H    55.900  34.190  55.300
   H    54.710  34.130  53.890
   H    53.600  36.580  53.220
   H    54.600  37.860  53.720
   H    55.330  36.720  52.610
   H    56.550  37.760  54.750
   H    57.360  36.300  54.380
   H    62.280  35.560  57.250
   H    61.550  36.520  55.970
   H    62.350  35.000  54.510
   H    62.970  33.980  55.810
   H    61.900  33.260  54.530
   H    58.250  35.680  52.730
   H    59.790  33.850  52.140
   H    61.070  34.940  51.900
   H    57.550  33.890  50.480
   H    59.030  32.870  50.360
   H    58.430  33.620  49.030
   H    61.330  35.740  49.450
   H    61.280  33.860  49.470
   H    60.440  34.760  48.350
   H    57.420  38.720  50.060
   H    57.790  39.260  51.620
   H    57.000  37.670  51.290
   H    59.470  39.200  49.470
   H    60.410  39.190  50.790
   H    60.870  38.070  49.590
   H    59.320  37.850  53.130
   H    60.730  37.430  52.260
   H    59.690  33.460  57.500
   H    61.340  33.380  57.780
   H    59.850  30.360  55.080
   H    60.330  31.870  54.390
   H    58.870  31.740  55.360
   H    64.040  29.840  55.680
   H    62.580  28.010  57.620
   H    63.710  29.190  57.800
   H    63.140  25.570  56.860
   H    63.740  25.850  58.450
   H    64.800  25.130  57.240
   H    66.170  28.670  57.370
   H    65.310  27.970  58.850
   H    66.530  27.110  57.980
   H    64.650  28.770  52.490
   H    65.350  29.520  53.880
   H    66.070  28.070  53.270
   H    64.970  25.720  53.660
   H    63.320  25.750  54.310
   H    63.740  26.540  52.740
   H    62.210  27.690  54.800
   H    62.730  28.900  53.840
   H    58.710  31.250  57.580
   H    59.840  30.050  57.300
   H    58.150  29.780  59.450
   H    59.410  29.490  60.680
   H    59.670  28.750  59.200
   H    64.020  31.050  59.870
   H    63.350  33.950  60.130
   H    63.790  33.250  58.740
   H    66.080  33.460  58.100
   H    66.130  31.870  58.880
   H    67.400  33.190  59.170
   H    65.560  35.600  59.830
   H    66.710  34.900  60.870
   H    65.120  35.140  61.400
   H    64.350  32.610  64.450
   H    64.800  33.930  63.240
   H    65.930  32.970  64.150
   H    66.560  30.730  63.000
   H    65.200  29.950  62.080
   H    65.050  30.310  63.760
   H    62.880  32.810  62.190
   H    63.030  31.060  62.270
   H    60.180  32.130  61.020
   H    60.000  33.010  59.520
   H    56.080  32.710  59.920
   H    57.190  33.200  58.650
   H    56.970  31.470  59.020
   H    57.740  35.580  62.900
   H    55.590  36.550  61.000
   H    57.290  36.910  61.090
   H    54.450  38.790  61.220
   H    56.140  39.520  60.980
   H    55.230  39.950  62.280
   H    57.960  37.720  63.660
   H    58.020  39.170  62.570
   H    57.170  39.150  64.130
   H    53.110  35.860  64.340
   H    53.980  34.810  65.470
   H    53.680  36.460  65.940
   H    56.050  36.880  66.280
   H    57.320  36.550  65.140
   H    56.430  35.220  65.960
   H    54.750  34.940  62.680
   H    55.820  34.150  63.770
   H    56.890  31.910  62.320
   H    57.530  30.560  61.310
   H    58.540  31.640  62.470
  