239
PTMA_CHAIN4_frame4
 C    92.410  75.740  19.520
   C    91.800  74.440  18.970
   C    90.470  74.180  19.710
   C    92.860  73.370  19.350
   O    92.720  72.760  20.370
   O    93.890  73.270  18.550
   C    94.840  72.250  18.730
   C    94.580  71.110  17.700
   C    95.590  69.970  17.800
   C    95.400  69.050  19.060
   C    95.280  69.030  16.620
   N    96.940  70.500  17.600
   O    97.810  69.850  16.990
   C    97.420  71.800  18.180
   C    97.970  71.580  19.610
   C    98.600  72.430  17.310
   C    96.240  72.810  18.370
   C    91.610  74.680  17.460
   C    90.880  73.770  16.420
   C    91.520  72.370  16.500
   C    89.420  73.600  16.820
   O    88.950  72.470  16.920
   O    88.830  74.690  17.100
   C    87.460  74.710  17.280
   C    86.980  74.220  18.690
   C    85.510  74.530  18.970
   C    84.650  73.510  18.150
   C    85.270  74.290  20.440
   N    85.150  75.930  18.600
   O    84.060  76.270  19.010
   C    85.810  76.720  17.490
   C    85.060  76.630  16.170
   C    85.840  78.170  17.910
   C    87.240  76.250  17.200
   C    91.130  74.430  15.010
   C    90.910  73.680  13.580
   C    92.130  72.740  13.250
   C    91.090  74.780  12.460
   O    90.480  74.770  11.430
   O    92.050  75.610  12.770
   C    92.320  76.680  11.920
   C    93.710  76.400  11.380
   C    94.100  77.480  10.450
   C    93.510  77.120  9.110
   C    95.710  77.350  10.330
   N    93.760  78.910  10.860
   O    94.070  79.790  10.090
   C    92.860  79.230  12.040
   C    91.540  79.920  11.550
   C    93.630  80.200  13.040
   C    92.420  77.910  12.740
   C    89.540  72.890  13.460
   C    88.140  73.600  13.250
   C    88.100  75.040  13.710
   C    87.660  73.580  11.820
   O    87.030  74.560  11.360
   O    88.220  72.610  11.070
   C    88.090  72.610  9.640
   C    89.110  71.530  9.170
   C    89.100  71.450  7.630
   C    90.080  70.300  7.180
   C    89.700  72.710  7.020
   N    87.720  71.230  6.990
   O    87.620  70.480  6.020
   C    86.510  71.820  7.630
   C    86.160  73.180  6.900
   C    85.200  70.950  7.510
   C    86.650  72.140  9.190
   C    87.020  72.890  13.960
   C    86.320  71.490  13.590
   C    85.180  71.820  12.620
   C    87.340  70.450  12.970
   O    87.190  69.890  11.880
   O    88.320  70.260  13.740
   C    89.160  69.140  13.560
   C    90.500  69.570  12.840
   C    91.460  68.420  12.570
   C    90.880  67.440  11.520
   C    92.810  68.990  12.020
   N    91.810  67.760  13.880
   O    92.910  67.300  14.080
   C    90.770  67.500  14.930
   C    91.570  67.470  16.300
   C    90.100  66.210  14.720
   C    89.590  68.600  14.870
   C    85.810  70.920  14.990
   C    84.680  69.800  15.090
   C    85.050  68.430  14.390
   C    83.340  70.320  14.680
   O    82.670  69.790  13.780
   O    82.940  71.410  15.290
   C    81.720  72.040  14.890
   C    80.480  71.470  15.650
   C    79.210  72.180  15.290
   C    78.310  71.860  16.570
   C    78.590  71.390  14.090
   N    79.350  73.750  15.100
   O    78.360  74.410  15.040
   C    80.680  74.460  14.870
   C    80.610  75.800  15.690
   C    80.900  74.830  13.450
   C    81.860  73.540  15.290
   C    84.620  69.410  16.580
   H    91.650  76.530  19.520
   H    92.730  75.780  20.560
   H    93.170  76.100  18.820
   H    90.560  74.260  20.790
   H    90.110  73.160  19.560
   H    89.640  74.850  19.480
   H    94.960  71.970  19.780
   H    93.540  70.800  17.790
   H    94.630  71.510  16.690
   H    94.400  68.650  19.240
   H    95.640  69.590  19.970
   H    96.040  68.170  19.000
   H    95.350  69.530  15.660
   H    94.290  68.610  16.740
   H    95.970  68.180  16.690
   H    97.240  71.230  20.330
   H    98.680  70.760  19.710
   H    98.400  72.460  20.090
   H    99.390  71.680  17.360
   H    99.010  73.350  17.720
   H    98.280  72.550  16.280
   H    96.060  73.250  17.390
   H    96.620  73.680  18.910
   H    91.070  75.630  17.430
   H    92.580  74.990  17.060
   H    90.990  71.670  15.850
   H    91.560  72.000  17.530
   H    92.510  72.520  16.090
   H    86.780  74.370  16.500
   H    87.240  73.160  18.770
   H    87.500  74.740  19.490
   H    83.630  73.890  18.250
   H    84.890  73.560  17.090
   H    84.810  72.470  18.450
   H    84.210  74.450  20.670
   H    85.810  75.000  21.070
   H    85.400  73.260  20.800
   H    85.120  75.630  15.740
   H    84.020  76.930  16.270
   H    85.480  77.300  15.420
   H    86.510  78.470  18.710
   H    86.260  78.760  17.090
   H    84.870  78.590  18.180
   H    87.860  76.610  18.030
   H    87.660  76.740  16.320
   H    92.150  74.800  14.960
   H    90.620  75.390  15.010
   H    92.000  72.360  12.230
   H    93.100  73.220  13.280
   H    92.280  71.900  13.920
   H    91.660  76.900  11.080
   H    93.690  75.430  10.890
   H    94.440  76.280  12.180
   H    93.810  77.770  8.280
   H    92.430  77.270  9.160
   H    93.780  76.110  8.780
   H    96.160  77.980  9.560
   H    96.240  77.530  11.260
   H    95.950  76.330  10.060
   H    90.770  79.270  11.150
   H    91.720  80.680  10.790
   H    91.060  80.320  12.440
   H    94.640  79.860  13.240
   H    93.750  81.140  12.510
   H    93.020  80.320  13.940
   H    91.390  78.020  13.100
   H    93.130  77.720  13.530
   H    89.410  72.260  14.340
   H    89.700  72.140  12.690
   H    87.090  75.440  13.800
   H    88.580  75.680  12.970
   H    88.570  75.280  14.660
   H    88.230  73.590  9.170
   H    89.110  70.640  9.790
   H    90.060  71.970  9.470
   H    90.150  70.250  6.100
   H    89.690  69.340  7.530
   H    91.110  70.380  7.510
   H    90.740  72.750  7.350
   H    89.670  72.740  5.930
   H    89.150  73.610  7.310
   H    86.820  74.010  7.140
   H    86.400  73.090  5.840
   H    85.160  73.570  7.110
   H    84.270  71.460  7.760
   H    85.020  70.480  6.550
   H    85.340  70.120  8.210
   H    86.470  71.160  9.630
   H    85.950  72.910  9.490
   H    87.470  72.630  14.920
   H    86.160  73.530  14.150
   H    85.570  72.230  11.690
   H    84.480  72.520  13.080
   H    84.640  70.940  12.270
   H    88.680  68.380  12.950
   H    91.140  70.270  13.370
   H    90.290  70.030  11.870
   H    90.090  66.760  11.850
   H    91.690  66.790  11.180
   H    90.550  67.910  10.590
   H    93.130  69.810  12.670
   H    92.730  69.400  11.020
   H    93.690  68.380  11.860
   H    91.000  67.270  17.210
   H    91.980  68.460  16.450
   H    92.350  66.710  16.400
   H    89.500  66.010  15.610
   H    90.820  65.390  14.640
   H    89.430  66.110  13.860
   H    89.890  69.520  15.370
   H    88.790  68.250  15.530
   H    86.650  70.570  15.580
   H    85.490  71.690  15.690
   H    86.020  68.060  14.720
   H    84.250  67.700  14.560
   H    85.100  68.570  13.310
   H    81.440  71.950  13.840
   H    80.670  71.430  16.720
   H    80.440  70.420  15.330
   H    78.240  70.800  16.800
   H    77.310  72.290  16.520
   H    78.810  72.380  17.390
   H    79.170  71.430  13.170
   H    78.600  70.330  14.330
   H    77.590  71.810  13.920
   H    80.420  75.640  16.750
   H    81.560  76.320  15.670
   H    79.820  76.460  15.340
   H    80.630  74.000  12.790
   H    81.940  75.080  13.240
   H    80.270  75.660  13.140
   H    82.090  73.630  16.350
   H    82.780  73.890  14.820
   H    84.570  70.320  17.180
   H    83.730  68.800  16.740
   H    85.440  68.780  16.910
  