239
PTMA_CHAIN5_time50
 C    87.930  63.480  71.120
   C    88.990  64.370  70.470
   C    88.350  65.780  70.240
   C    89.300  63.800  69.030
   O    89.130  64.430  67.960
   O    89.680  62.540  69.120
   C    89.760  61.710  68.010
   C    90.980  60.930  68.200
   C    91.340  60.190  66.960
   C    92.000  61.120  65.870
   C    92.330  59.070  67.430
   N    90.170  59.600  66.300
   H    90.300  58.950  65.440
   C    88.830  59.590  66.950
   C    87.680  59.830  65.930
   C    88.650  58.190  67.660
   C    88.660  60.660  67.980
   C    90.220  64.330  71.370
   C    91.400  65.300  71.290
   C    91.890  65.330  69.820
   C    91.050  66.790  71.660
   O    91.610  67.740  71.100
   O    90.040  66.880  72.520
   C    89.650  68.230  73.000
   C    88.450  68.690  72.240
   C    88.150  70.180  72.620
   C    89.270  71.160  72.010
   C    86.870  70.750  71.990
   N    88.060  70.390  74.090
   O    87.190  71.100  74.540
   C    88.970  69.600  74.970
   C    90.180  70.510  75.310
   C    88.230  69.210  76.310
   C    89.390  68.220  74.450
   C    92.680  64.690  72.060
   C    93.730  65.560  72.890
   C    94.790  64.420  73.100
   C    93.200  65.850  74.300
   O    91.980  66.020  74.470
   O    94.080  66.100  75.260
   C    93.620  66.010  76.580
   C    93.250  67.360  77.090
   C    92.830  67.330  78.510
   C    91.460  66.760  78.700
   C    92.980  68.680  79.150
   N    93.620  66.430  79.340
   H    93.630  66.700  80.400
   C    94.430  65.260  78.880
   C    93.690  63.970  79.020
   C    95.800  65.190  79.720
   C    94.740  65.540  77.400
   C    94.500  66.820  72.200
   C    94.680  68.210  72.960
   C    93.350  68.920  73.610
   C    95.840  68.200  74.070
   O    95.870  68.930  75.080
   O    96.800  67.310  73.870
   C    97.780  67.140  74.900
   C    98.090  65.650  75.070
   C    99.090  65.400  76.150
   C    100.170  64.420  75.670
   C    98.420  64.930  77.520
   N    99.980  66.670  76.480
   O    100.610  66.710  77.580
   C    100.230  67.710  75.390
   C    100.370  69.060  76.070
   C    101.610  67.450  74.770
   C    99.080  67.750  74.370
   C    95.080  69.350  71.970
   C    96.100  69.460  70.780
   C    97.490  68.960  71.300
   C    95.580  68.450  69.580
   O    96.130  67.370  69.430
   O    94.600  68.950  68.790
   C    94.280  68.390  67.500
   C    92.790  68.080  67.640
   C    92.350  67.450  66.350
   C    92.600  65.930  66.460
   C    90.830  67.840  66.170
   N    93.040  67.870  65.140
   H    92.940  67.180  64.290
   C    94.160  68.870  65.050
   C    93.640  69.990  64.120
   C    95.350  68.140  64.370
   C    94.470  69.390  66.420
   C    96.180  70.880  70.170
   C    96.940  72.140  70.780
   C    96.510  72.280  72.290
   C    96.530  73.340  69.930
   O    97.360  73.830  69.180
   O    95.250  73.710  70.080
   C    94.640  74.430  69.010
   C    93.910  73.500  68.070
   C    93.130  74.200  67.000
   C    92.130  73.190  66.430
   C    93.980  74.630  65.760
   N    92.450  75.460  67.480
   O    91.330  75.640  67.030
   C    92.980  76.330  68.650
   C    91.740  76.900  69.380
   C    93.860  77.570  68.190
   C    93.700  75.410  69.690
   C    98.420  71.980  70.690
   H    87.730  63.690  72.170
   H    87.040  63.340  70.510
   H    88.370  62.480  71.140
   H    87.840  66.160  71.130
   H    87.560  65.710  69.500
   H    89.090  66.490  69.860
   H    89.640  62.320  67.120
   H    91.850  61.500  68.510
   H    90.870  60.250  69.050
   H    91.440  62.050  65.980
   H    91.890  60.630  64.900
   H    93.040  61.300  66.150
   H    93.220  59.530  67.860
   H    92.790  58.590  66.570
   H    91.920  58.340  68.130
   H    87.620  60.770  65.370
   H    87.650  58.980  65.250
   H    86.680  59.710  66.350
   H    88.560  57.390  66.930
   H    87.750  58.400  68.240
   H    89.370  57.910  68.430
   H    88.640  60.290  69.000
   H    87.800  61.250  67.690
   H    89.890  64.320  72.410
   H    90.620  63.330  71.190
   H    92.920  65.660  69.690
   H    91.250  65.910  69.160
   H    91.960  64.320  69.420
   H    90.460  68.950  72.880
   H    88.730  68.630  71.190
   H    87.580  68.050  72.420
   H    90.280  70.890  72.300
   H    89.320  71.120  70.930
   H    89.060  72.170  72.360
   H    85.970  70.260  72.370
   H    86.940  70.690  70.900
   H    86.740  71.770  72.340
   H    90.590  71.060  74.470
   H    89.780  71.250  76.010
   H    91.020  70.060  75.840
   H    87.270  68.740  76.090
   H    88.680  68.400  76.890
   H    88.150  69.980  77.070
   H    88.590  67.500  74.620
   H    90.270  67.850  74.980
   H    93.140  63.920  71.440
   H    92.240  64.040  72.810
   H    95.690  64.710  73.650
   H    94.330  63.710  73.790
   H    95.070  63.890  72.200
   H    92.880  65.230  76.770
   H    92.350  67.710  76.590
   H    94.020  68.110  76.930
   H    90.680  67.430  78.330
   H    91.220  66.670  79.760
   H    91.270  65.860  78.120
   H    92.330  68.750  80.020
   H    94.000  68.930  79.470
   H    92.690  69.460  78.450
   H    93.990  63.320  78.200
   H    92.610  63.990  78.890
   H    94.130  63.490  79.900
   H    95.700  65.030  80.790
   H    96.440  64.410  79.310
   H    96.290  66.150  79.540
   H    95.370  64.760  76.980
   H    95.530  66.290  77.450
   H    94.080  66.990  71.210
   H    95.490  66.550  71.820
   H    93.540  69.920  73.990
   H    92.880  68.450  74.470
   H    92.570  69.110  72.860
   H    97.570  67.580  75.880
   H    98.440  65.310  74.090
   H    97.160  65.150  75.330
   H    99.790  63.400  75.730
   H    101.070  64.290  76.290
   H    100.450  64.660  74.650
   H    98.080  65.840  78.000
   H    97.610  64.200  77.520
   H    99.230  64.550  78.140
   H    101.110  68.970  76.870
   H    100.670  69.850  75.380
   H    99.420  69.200  76.580
   H    101.950  68.110  73.970
   H    102.360  67.350  75.540
   H    101.660  66.470  74.310
   H    99.330  67.360  73.390
   H    98.900  68.790  74.110
   H    94.130  69.610  71.500
   H    95.270  70.210  72.610
   H    97.760  69.380  72.270
   H    98.290  69.160  70.590
   H    97.420  67.930  71.670
   H    94.880  67.500  67.300
   H    92.300  69.030  67.810
   H    92.440  67.430  68.450
   H    91.840  65.410  67.030
   H    93.500  65.780  67.060
   H    92.700  65.350  65.540
   H    90.420  67.290  65.320
   H    90.730  68.910  66.010
   H    90.250  67.530  67.050
   H    94.320  70.840  64.150
   H    92.700  70.230  64.630
   H    93.510  69.720  63.070
   H    96.270  68.640  64.680
   H    95.280  68.200  63.280
   H    95.470  67.100  64.650
   H    93.940  70.310  66.670
   H    95.500  69.740  66.350
   H    96.600  70.760  69.180
   H    95.130  71.150  70.030
   H    96.860  71.440  72.900
   H    97.040  73.100  72.780
   H    95.460  72.540  72.350
   H    95.290  75.000  68.340
   H    93.380  72.780  68.700
   H    94.590  72.740  67.660
   H    92.740  72.360  66.070
   H    91.700  73.620  65.520
   H    91.310  72.970  67.110
   H    94.570  73.820  65.330
   H    93.350  75.160  65.040
   H    94.620  75.450  66.070
   H    92.040  77.100  70.410
   H    91.140  77.660  68.880
   H    91.070  76.060  69.580
   H    93.780  78.400  68.900
   H    93.560  77.980  67.230
   H    94.950  77.450  68.270
   H    92.880  74.910  70.200
   H    94.170  75.960  70.520
   H    98.760  71.690  69.690
   H    98.920  72.900  70.980
   H    98.800  71.320  71.470
  