239
PTMA_CHAIN7_time500
 C    97.570  8.580  12.110
   C    97.400  9.890  13.050
   C    98.620  10.010  13.980
   C    96.070  9.670  13.840
   O    96.130  9.050  14.930
   O    94.960  10.050  13.240
   C    93.740  9.590  13.670
   C    92.820  10.690  14.110
   C    91.480  10.310  14.610
   C    91.440  9.480  15.900
   C    90.580  11.470  14.830
   N    90.880  9.560  13.470
   H    90.110  10.030  12.870
   C    91.650  8.500  12.760
   C    91.780  7.200  13.520
   C    90.950  8.220  11.500
   C    93.010  9.020  12.470
   C    97.240  11.140  12.060
   C    97.370  12.690  12.540
   C    96.340  12.990  13.670
   C    98.850  12.950  13.000
   O    99.040  13.650  14.020
   O    99.800  12.510  12.160
   C    101.120  12.920  12.390
   C    101.800  11.900  13.230
   C    103.240  12.240  13.440
   C    103.460  13.070  14.710
   C    104.140  11.040  13.520
   N    103.870  13.050  12.380
   H    104.850  13.480  12.570
   C    103.130  13.580  11.210
   C    103.100  15.090  11.460
   C    103.970  13.310  9.950
   C    101.740  13.050  11.070
   C    97.110  13.430  11.220
   C    96.830  14.970  10.980
   C    95.390  15.310  11.430
   C    97.000  15.120  9.490
   O    98.090  15.170  8.960
   O    95.810  15.050  8.860
   C    95.650  15.110  7.450
   C    94.200  15.430  7.150
   C    94.070  15.740  5.710
   C    94.660  17.020  5.330
   C    92.560  15.860  5.440
   N    94.610  14.640  4.860
   H    94.340  14.670  3.800
   C    95.670  13.730  5.400
   C    96.920  14.100  4.590
   C    95.220  12.370  5.110
   C    95.890  13.760  6.890
   C    97.860  15.840  11.830
   C    98.210  17.380  11.610
   C    99.160  17.550  10.370
   C    96.980  18.220  11.340
   O    96.630  19.050  12.210
   O    96.600  18.290  10.100
   C    96.160  19.540  9.530
   C    96.760  19.460  8.100
   C    96.490  20.670  7.310
   C    96.600  20.310  5.820
   C    97.500  21.770  7.590
   N    95.110  21.190  7.560
   H    94.830  22.040  6.930
   C    94.170  20.670  8.520
   C    93.840  21.760  9.590
   C    92.810  20.330  7.840
   C    94.710  19.420  9.220
   C    99.130  18.000  12.780
   C    98.860  18.110  14.360
   C    99.950  19.110  14.750
   C    97.480  18.680  14.800
   O    97.400  19.840  15.180
   O    96.520  17.780  14.770
   C    95.280  18.160  15.410
   C    94.350  18.800  14.350
   C    92.960  19.090  14.950
   C    92.910  20.580  15.330
   C    91.840  18.830  13.840
   N    92.530  18.260  16.120
   H    91.520  18.360  16.520
   C    93.430  17.110  16.670
   C    92.620  15.860  16.980
   C    93.900  17.580  18.130
   C    94.570  16.850  15.820
   C    99.190  16.710  15.060
   C    99.340  16.460  16.620
   C    100.860  16.590  16.940
   C    98.750  15.030  16.910
   O    97.530  14.890  16.960
   O    99.670  14.190  17.320
   C    99.230  13.090  18.010
   C    98.820  11.750  17.380
   C    98.390  10.590  18.360
   C    98.580  9.220  17.620
   C    96.840  10.650  18.620
   N    99.130  10.610  19.630
   O    99.160  9.600  20.350
   C    100.010  11.770  20.090
   C    101.360  11.260  20.620
   C    99.230  12.430  21.260
   C    100.380  12.710  18.900
   C    98.550  17.390  17.580
   H    97.770  7.720  12.740
   H    96.700  8.260  11.550
   H    98.450  8.710  11.480
   H    99.560  10.210  13.470
   H    98.770  9.080  14.520
   H    98.460  10.680  14.820
   H    93.750  8.870  14.490
   H    93.390  11.160  14.920
   H    92.770  11.520  13.420
   H    91.780  10.140  16.690
   H    92.100  8.610  15.910
   H    90.460  9.040  16.100
   H    90.260  11.960  13.910
   H    91.150  12.190  15.420
   H    89.620  11.150  15.250
   H    90.890  7.060  14.140
   H    91.900  6.360  12.840
   H    92.650  7.100  14.160
   H    91.700  7.730  10.880
   H    90.690  9.120  10.960
   H    90.090  7.540  11.510
   H    92.900  9.800  11.720
   H    93.590  8.220  12.010
   H    97.970  11.010  11.250
   H    96.370  10.950  11.430
   H    96.360  14.060  13.860
   H    96.590  12.490  14.610
   H    95.300  12.900  13.370
   H    101.090  13.860  12.950
   H    101.320  11.830  14.200
   H    101.670  10.910  12.800
   H    104.500  13.130  15.030
   H    103.140  14.110  14.750
   H    103.020  12.560  15.570
   H    103.710  10.450  14.320
   H    105.150  11.350  13.800
   H    104.220  10.410  12.630
   H    102.530  15.390  12.340
   H    104.050  15.620  11.550
   H    102.600  15.640  10.660
   H    104.350  12.290  9.920
   H    103.410  13.300  9.020
   H    104.730  14.080  9.790
   H    101.760  12.120  10.510
   H    101.070  13.640  10.440
   H    96.260  12.920  10.770
   H    97.970  13.170  10.590
   H    95.290  15.400  12.510
   H    95.020  16.240  10.990
   H    94.760  14.430  11.300
   H    96.310  15.900  7.080
   H    93.860  16.260  7.780
   H    93.650  14.530  7.440
   H    95.750  17.130  5.270
   H    94.350  17.750  6.080
   H    94.130  17.450  4.480
   H    92.410  15.580  4.390
   H    91.920  15.160  5.990
   H    92.200  16.890  5.510
   H    97.790  13.990  5.250
   H    96.810  15.130  4.270
   H    96.960  13.480  3.700
   H    94.240  12.110  5.500
   H    95.070  12.250  4.030
   H    95.940  11.590  5.360
   H    96.850  13.330  7.180
   H    95.190  13.090  7.390
   H    98.820  15.330  11.970
   H    97.560  15.620  12.850
   H    98.620  17.380  9.430
   H    100.080  16.980  10.350
   H    99.430  18.590  10.180
   H    96.500  20.440  10.040
   H    96.370  18.630  7.510
   H    97.800  19.150  8.200
   H    96.190  19.320  5.610
   H    97.620  20.050  5.530
   H    96.230  21.100  5.160
   H    98.570  21.620  7.470
   H    97.150  22.690  7.140
   H    97.440  21.950  8.660
   H    94.600  21.960  10.340
   H    93.560  22.720  9.140
   H    92.960  21.490  10.170
   H    92.110  19.730  8.430
   H    92.340  21.290  7.590
   H    93.050  19.740  6.960
   H    94.460  18.570  8.590
   H    94.290  19.250  10.210
   H    100.100  17.510  12.660
   H    99.340  19.000  12.400
   H    100.920  18.660  14.520
   H    99.880  19.330  15.810
   H    99.930  20.060  14.220
   H    95.350  18.830  16.270
   H    94.250  18.010  13.610
   H    94.930  19.620  13.920
   H    93.560  21.220  14.740
   H    93.320  20.670  16.340
   H    91.920  20.950  15.590
   H    91.080  18.230  14.330
   H    92.250  18.380  12.940
   H    91.490  19.760  13.380
   H    91.870  16.040  17.760
   H    93.300  15.100  17.370
   H    92.110  15.480  16.100
   H    94.860  18.060  18.030
   H    94.020  16.740  18.820
   H    93.310  18.350  18.620
   H    94.180  16.350  14.940
   H    95.310  16.200  16.290
   H    98.260  16.180  14.850
   H    99.870  16.070  14.500
   H    101.030  16.490  18.010
   H    101.490  15.890  16.390
   H    101.250  17.580  16.710
   H    98.450  13.440  18.690
   H    99.700  11.370  16.860
   H    98.000  11.970  16.690
   H    98.050  9.320  16.680
   H    98.220  8.470  18.320
   H    99.630  8.990  17.410
   H    96.290  10.960  17.730
   H    96.420  9.690  18.920
   H    96.640  11.480  19.300
   H    101.430  10.460  21.360
   H    102.080  11.050  19.830
   H    101.870  12.110  21.060
   H    99.710  13.390  21.450
   H    99.210  11.870  22.190
   H    98.170  12.630  21.070
   H    101.210  12.310  18.330
   H    100.830  13.580  19.380
   H    97.470  17.220  17.660
   H    98.960  17.230  18.570
   H    98.660  18.470  17.550
  