239
PTMA_CHAIN2_time500
 C    92.260  18.240  87.410
   C    91.290  19.130  86.570
   C    92.080  20.350  86.130
   C    90.190  19.600  87.520
   O    89.750  20.790  87.460
   O    89.840  18.780  88.480
   C    88.940  19.200  89.540
   C    87.540  18.780  89.130
   C    86.630  19.280  90.190
   C    86.340  20.790  90.000
   C    85.470  18.350  90.210
   N    87.290  19.230  91.570
   H    86.710  19.680  92.370
   C    88.580  18.690  91.880
   C    89.470  19.660  92.690
   C    88.320  17.500  92.800
   C    89.340  18.330  90.670
   C    90.700  18.200  85.510
   C    89.550  18.530  84.520
   C    88.310  18.820  85.270
   C    89.830  19.650  83.510
   O    89.160  20.660  83.370
   O    91.090  19.530  82.950
   C    91.780  20.580  82.200
   C    93.240  20.150  81.990
   C    94.050  21.320  81.310
   C    94.630  22.330  82.370
   C    95.290  20.660  80.660
   N    93.270  22.120  80.250
   O    93.850  23.090  79.760
   C    91.780  22.060  80.030
   C    91.170  23.390  80.510
   C    91.540  21.850  78.540
   C    91.220  20.900  80.800
   C    89.240  17.160  83.840
   C    88.620  17.000  82.380
   C    88.180  15.500  82.270
   C    89.690  17.330  81.290
   O    89.520  18.200  80.480
   O    90.630  16.460  81.260
   C    91.810  16.670  80.550
   C    91.820  16.230  79.120
   C    93.110  16.580  78.360
   C    92.880  17.930  77.660
   C    93.380  15.510  77.240
   N    94.210  16.710  79.330
   H    95.190  17.000  78.960
   C    94.240  16.020  80.620
   C    95.280  16.720  81.520
   C    94.730  14.530  80.440
   C    92.870  15.960  81.290
   C    87.330  17.800  82.090
   C    86.450  17.870  80.750
   C    87.030  18.920  79.720
   C    86.280  16.460  80.100
   O    85.210  15.810  80.230
   O    87.380  16.140  79.370
   C    87.400  15.190  78.330
   C    87.780  15.920  77.020
   C    88.020  15.030  75.820
   C    88.740  15.740  74.690
   C    86.660  14.670  75.220
   N    88.690  13.720  76.180
   O    89.280  13.070  75.280
   C    88.780  13.150  77.570
   C    88.030  11.780  77.560
   C    90.280  12.850  77.810
   C    88.460  14.160  78.700
   C    84.960  18.470  81.120
   C    84.140  18.400  82.500
   C    82.680  18.830  82.070
   C    83.990  16.950  83.090
   O    83.080  16.240  82.770
   O    84.770  16.670  84.120
   C    84.670  15.520  84.900
   C    85.710  14.500  84.360
   C    85.500  13.150  85.060
   C    84.350  12.350  84.450
   C    86.860  12.410  84.820
   N    85.290  13.430  86.510
   H    84.970  12.610  87.140
   C    85.410  14.730  87.210
   C    86.730  14.850  87.960
   C    84.260  14.760  88.200
   C    85.170  15.910  86.280
   C    84.750  19.430  83.520
   C    83.900  20.220  84.660
   C    82.830  21.190  83.980
   C    84.910  20.990  85.470
   O    85.440  20.470  86.410
   O    85.320  22.110  84.770
   C    86.460  22.760  85.260
   C    87.020  23.490  84.130
   C    88.140  24.450  84.490
   C    88.150  25.620  83.420
   C    89.500  23.770  84.340
   N    88.050  25.160  85.810
   O    88.760  26.110  86.060
   C    87.110  24.580  86.850
   C    86.560  25.730  87.720
   C    88.010  23.760  87.830
   C    85.950  23.810  86.240
   C    83.100  19.270  85.590
   H    93.070  17.900  86.770
   H    92.550  18.950  88.190
   H    91.720  17.330  87.690
   H    92.300  21.010  86.970
   H    91.680  20.960  85.320
   H    93.020  20.060  85.640
   H    89.030  20.280  89.710
   H    87.200  19.160  88.170
   H    87.460  17.710  88.930
   H    85.920  20.980  89.010
   H    87.240  21.390  90.140
   H    85.590  21.250  90.640
   H    85.030  18.310  89.210
   H    84.650  18.730  90.820
   H    85.740  17.330  90.470
   H    88.880  20.110  93.490
   H    90.290  19.150  93.190
   H    90.000  20.400  92.090
   H    87.560  16.830  92.400
   H    88.060  17.890  93.780
   H    89.250  16.950  92.960
   H    89.080  17.280  90.530
   H    90.420  18.410  90.770
   H    91.580  17.680  85.130
   H    90.280  17.410  86.130
   H    88.260  19.820  85.690
   H    88.070  18.160  86.100
   H    87.370  18.850  84.710
   H    91.760  21.480  82.810
   H    93.660  19.750  82.910
   H    93.220  19.240  81.380
   H    93.900  23.020  82.800
   H    95.260  21.850  83.120
   H    95.420  22.860  81.830
   H    95.800  21.270  79.910
   H    94.860  19.980  79.930
   H    95.900  20.080  81.340
   H    91.460  23.540  81.550
   H    91.580  24.140  79.830
   H    90.080  23.460  80.450
   H    91.540  22.830  78.070
   H    92.230  21.160  78.060
   H    90.510  21.490  78.490
   H    91.170  20.070  80.090
   H    90.160  21.140  80.890
   H    88.660  16.550  84.540
   H    90.200  16.640  83.820
   H    87.090  15.520  82.330
   H    88.470  14.970  81.370
   H    88.540  14.940  83.140
   H    92.030  17.740  80.540
   H    90.980  16.650  78.570
   H    91.740  15.140  79.070
   H    92.050  17.810  76.960
   H    93.780  18.160  77.090
   H    92.620  18.790  78.290
   H    93.080  14.500  77.530
   H    92.720  15.650  76.380
   H    94.380  15.400  76.810
   H    95.040  17.770  81.700
   H    96.250  16.720  81.030
   H    95.380  16.200  82.470
   H    93.980  13.970  79.890
   H    95.630  14.420  79.830
   H    95.020  13.990  81.340
   H    92.950  16.470  82.240
   H    92.610  14.930  81.520
   H    87.660  18.830  82.220
   H    86.600  17.580  82.880
   H    87.570  18.550  78.850
   H    87.580  19.780  80.100
   H    86.230  19.320  79.110
   H    86.500  14.580  78.210
   H    88.610  16.610  77.110
   H    86.970  16.610  76.800
   H    89.710  16.160  74.930
   H    88.270  16.700  74.460
   H    88.900  15.160  73.780
   H    86.180  13.800  75.650
   H    85.910  15.450  75.100
   H    86.760  14.380  74.170
   H    88.570  11.240  78.330
   H    87.000  11.990  77.870
   H    87.970  11.220  76.630
   H    90.590  11.980  77.230
   H    90.810  13.730  77.460
   H    90.510  12.700  78.870
   H    89.320  14.770  78.960
   H    88.120  13.640  79.600
   H    84.840  19.530  80.920
   H    84.260  18.120  80.360
   H    82.700  19.870  81.740
   H    82.020  18.770  82.930
   H    82.180  18.250  81.300
   H    83.690  15.050  85.000
   H    86.730  14.880  84.410
   H    85.490  14.340  83.310
   H    84.640  11.890  83.510
   H    83.510  13.030  84.300
   H    84.080  11.450  85.000
   H    86.910  11.370  85.150
   H    87.580  12.820  85.530
   H    87.310  12.540  83.840
   H    86.990  13.840  88.250
   H    86.560  15.500  88.820
   H    87.510  15.320  87.360
   H    83.310  14.760  87.680
   H    84.250  15.670  88.810
   H    84.260  14.020  88.990
   H    85.980  16.630  86.400
   H    84.360  16.550  86.620
   H    85.450  18.920  84.190
   H    85.410  20.180  83.080
   H    81.880  20.730  83.710
   H    82.560  22.070  84.570
   H    83.260  21.590  83.070
   H    87.260  22.120  85.620
   H    86.220  23.990  83.580
   H    87.410  22.780  83.390
   H    87.900  25.190  82.450
   H    89.130  26.080  83.330
   H    87.470  26.400  83.740
   H    89.560  23.340  83.340
   H    90.310  24.490  84.450
   H    89.520  22.950  85.060
   H    85.810  25.330  88.400
   H    87.310  26.290  88.290
   H    86.090  26.470  87.080
   H    88.670  23.190  87.190
   H    87.400  23.030  88.360
   H    88.550  24.400  88.530
   H    85.280  24.490  85.710
   H    85.260  23.520  87.040
   H    82.790  19.620  86.570
   H    82.110  19.050  85.180
   H    83.610  18.310  85.640
  