239
PTMA_CHAIN9_time0point05
 C    96.170  46.730  68.010
   C    94.850  47.500  68.310
   C    95.270  48.240  69.570
   C    93.770  46.450  68.640
   O    93.280  46.520  69.780
   O    93.690  45.450  67.720
   C    93.050  44.210  68.020
   C    91.520  44.290  68.250
   C    90.890  43.040  68.740
   C    91.060  42.880  70.290
   C    89.350  42.970  68.390
   N    91.620  41.760  68.180
   O    91.330  40.670  68.480
   C    92.600  41.920  66.890
   C    93.370  40.610  66.910
   C    91.670  41.840  65.570
   C    93.380  43.140  66.880
   C    94.440  48.370  67.090
   C    93.490  49.540  67.120
   C    92.190  49.170  67.910
   C    94.240  50.770  67.680
   O    93.830  51.450  68.630
   O    95.420  51.040  67.060
   C    96.110  52.220  67.470
   C    97.380  51.790  68.340
   C    98.780  51.810  67.720
   C    99.750  51.780  68.870
   C    99.120  50.690  66.750
   N    99.040  53.090  66.830
   O    100.110  53.510  66.690
   C    97.750  53.770  66.190
   C    97.470  55.110  66.840
   C    98.270  54.140  64.800
   C    96.690  52.760  66.100
   C    93.220  49.760  65.570
   C    92.060  50.660  64.850
   C    90.910  49.600  64.620
   C    92.770  51.020  63.540
   O    93.840  51.670  63.590
   O    92.280  50.480  62.390
   C    93.040  50.660  61.160
   C    92.690  52.010  60.570
   C    93.380  52.370  59.350
   C    94.710  53.190  59.560
   C    92.480  53.370  58.560
   N    93.560  51.240  58.240
   O    93.870  51.560  57.130
   C    93.520  49.750  58.770
   C    94.920  49.030  58.790
   C    92.730  49.060  57.580
   C    92.720  49.620  60.010
   C    91.550  51.900  65.710
   C    90.890  53.300  65.250
   C    91.810  54.090  64.210
   C    89.480  53.230  64.580
   O    88.620  54.100  64.760
   O    89.310  52.230  63.790
   C    88.160  52.310  62.960
   C    88.540  51.420  61.750
   C    87.580  50.300  61.430
   C    87.690  49.030  62.350
   C    87.870  49.790  59.930
   N    86.090  50.700  61.520
   O    85.400  50.540  60.590
   C    85.690  51.710  62.630
   C    85.060  53.010  62.060
   C    84.500  50.970  63.190
   C    86.850  51.880  63.620
   C    90.840  54.250  66.480
   C    89.930  54.140  67.820
   C    89.530  55.560  68.240
   C    88.530  53.420  67.670
   O    87.510  54.040  67.420
   O    88.450  52.130  68.000
   C    87.300  51.580  68.370
   C    86.420  50.950  67.320
   C    85.100  50.510  67.820
   C    84.110  51.710  67.990
   C    84.360  49.500  66.940
   N    85.170  50.060  69.320
   O    84.190  49.680  69.830
   C    86.600  49.670  69.890
   C    86.980  48.160  69.730
   C    86.350  49.820  71.480
   C    87.670  50.630  69.490
   C    90.690  53.480  69.060
   C    91.800  54.180  69.980
   C    92.860  54.960  69.200
   C    92.490  53.060  70.860
   O    91.950  51.950  71.060
   O    93.700  53.390  71.390
   C    94.350  52.780  72.500
   C    95.880  52.690  72.230
   C    96.720  52.200  73.380
   C    98.260  52.400  73.190
   C    96.530  50.680  73.650
   N    96.180  52.810  74.730
   O    96.740  52.500  75.740
   C    95.190  53.990  74.670
   C    95.950  55.470  74.420
   C    94.600  54.070  76.170
   C    94.110  53.720  73.730
   C    91.130  55.130  70.950
   H    97.020  47.410  68.020
   H    96.320  46.010  68.820
   H    96.070  46.210  67.060
   H    96.120  48.930  69.520
   H    95.580  47.520  70.340
   H    94.490  48.790  70.090
   H    93.560  43.840  68.910
   H    91.190  45.130  68.850
   H    91.140  44.410  67.230
   H    91.990  43.330  70.640
   H    91.090  41.840  70.620
   H    90.220  43.320  70.820
   H    88.790  43.820  68.780
   H    88.750  42.130  68.720
   H    89.210  43.020  67.310
   H    92.740  39.720  66.840
   H    94.050  40.660  66.060
   H    93.910  40.590  67.860
   H    91.160  42.790  65.410
   H    90.910  41.060  65.570
   H    92.300  41.560  64.730
   H    93.260  43.640  65.910
   H    94.470  43.110  66.920
   H    95.390  48.640  66.620
   H    94.030  47.610  66.420
   H    91.460  49.990  67.950
   H    92.500  49.010  68.940
   H    91.730  48.250  67.580
   H    95.390  52.870  67.960
   H    97.270  52.430  69.220
   H    97.200  50.790  68.750
   H    99.640  52.580  69.590
   H    99.520  50.830  69.350
   H    100.810  51.770  68.600
   H    100.180  50.780  66.540
   H    98.740  50.780  65.740
   H    99.010  49.670  67.120
   H    96.610  55.620  66.400
   H    97.260  54.990  67.900
   H    98.240  55.880  66.810
   H    99.220  54.680  64.790
   H    98.360  53.170  64.330
   H    97.430  54.710  64.410
   H    96.790  51.980  65.340
   H    95.820  53.220  65.630
   H    93.160  48.800  65.050
   H    94.190  50.080  65.190
   H    90.580  49.090  65.520
   H    90.000  50.050  64.220
   H    91.160  48.780  63.950
   H    94.090  50.490  61.380
   H    92.920  52.740  61.340
   H    91.600  51.960  60.500
   H    95.220  53.290  58.600
   H    95.580  52.810  60.080
   H    94.670  54.240  59.830
   H    91.480  52.970  58.410
   H    92.370  54.240  59.210
   H    92.870  53.710  57.600
   H    94.850  48.010  59.170
   H    95.620  49.650  59.360
   H    95.330  49.030  57.780
   H    91.660  49.130  57.750
   H    92.900  49.490  56.590
   H    93.010  48.010  57.520
   H    92.970  48.650  60.440
   H    91.650  49.570  59.820
   H    92.370  52.290  66.320
   H    90.850  51.470  66.420
   H    92.880  54.040  64.420
   H    91.510  55.110  63.970
   H    91.710  53.590  63.240
   H    88.030  53.330  62.600
   H    89.530  50.980  61.870
   H    88.740  52.230  61.050
   H    88.330  48.290  61.880
   H    86.750  48.510  62.530
   H    88.070  49.370  63.320
   H    87.290  48.880  59.790
   H    87.630  50.520  59.160
   H    88.910  49.470  59.960
   H    84.780  53.650  62.900
   H    85.700  53.540  61.360
   H    84.130  52.760  61.550
   H    84.830  50.090  63.740
   H    84.020  51.590  63.940
   H    83.720  50.680  62.490
   H    86.980  51.000  64.240
   H    86.560  52.670  64.310
   H    91.840  54.530  66.820
   H    90.520  55.220  66.090
   H    90.390  56.220  68.410
   H    88.870  55.590  69.100
   H    88.940  56.050  67.460
   H    86.770  52.410  68.840
   H    86.970  50.230  66.720
   H    86.220  51.750  66.610
   H    83.910  52.170  67.020
   H    84.380  52.450  68.740
   H    83.150  51.360  68.380
   H    84.300  49.830  65.900
   H    83.400  49.080  67.230
   H    85.020  48.630  66.960
   H    86.260  47.370  69.960
   H    87.910  47.940  70.260
   H    87.230  47.900  68.710
   H    86.240  50.860  71.780
   H    87.210  49.460  72.050
   H    85.460  49.360  71.900
   H    88.560  50.030  69.260
   H    87.960  51.260  70.330
   H    89.920  53.140  69.760
   H    91.110  52.530  68.700
   H    92.510  55.730  68.510
   H    93.570  55.380  69.910
   H    93.430  54.170  68.690
   H    93.960  51.780  72.670
   H    96.160  53.650  71.790
   H    95.880  52.010  71.390
   H    98.500  53.460  73.150
   H    98.640  51.820  72.350
   H    98.790  52.040  74.070
   H    96.900  50.360  74.630
   H    95.480  50.390  73.680
   H    97.080  50.120  72.900
   H    95.260  56.280  74.630
   H    96.800  55.650  75.080
   H    96.330  55.600  73.400
   H    93.820  54.820  76.300
   H    95.290  54.250  76.990
   H    94.140  53.110  76.420
   H    93.760  54.700  73.400
   H    93.250  53.220  74.160
   H    90.280  54.820  71.560
   H    91.810  55.480  71.730
   H    90.830  56.120  70.600
  