239
PTMA_CHAIN1_time0point005
 C    92.430  25.330  76.830
   C    92.500  26.630  75.990
   C    91.040  27.290  76.040
   C    92.810  26.210  74.520
   O    91.980  26.270  73.590
   O    94.060  25.670  74.530
   C    94.310  24.840  73.390
   C    94.710  25.610  72.140
   C    94.910  24.650  70.860
   C    93.610  24.500  70.200
   C    95.920  25.360  69.890
   N    95.440  23.250  71.270
   O    95.940  22.580  70.330
   C    96.170  23.230  72.610
   C    96.470  21.710  72.950
   C    97.550  23.900  72.430
   C    95.410  23.890  73.780
   C    93.560  27.620  76.570
   C    93.590  29.160  76.420
   C    93.590  29.450  74.870
   C    92.420  29.780  77.170
   O    91.670  30.630  76.620
   O    92.340  29.380  78.450
   C    91.420  30.040  79.370
   C    90.260  29.220  79.640
   C    90.290  28.390  81.020
   C    88.910  27.710  81.090
   C    91.290  27.230  80.890
   N    90.610  29.280  82.180
   O    89.710  29.360  83.070
   C    91.370  30.540  81.910
   C    90.420  31.790  81.700
   C    92.280  30.810  83.080
   C    92.270  30.400  80.630
   C    94.910  29.710  77.070
   C    95.650  31.070  76.880
   C    96.580  30.880  75.620
   C    96.430  31.260  78.220
   O    95.800  31.480  79.210
   O    97.790  30.950  78.090
   C    98.490  30.810  79.310
   C    98.780  32.170  79.950
   C    99.540  32.060  81.280
   C    98.500  31.650  82.370
   C    99.980  33.560  81.670
   N    100.770  31.170  81.240
   O    101.370  31.050  82.310
   C    100.600  29.900  80.360
   C    100.010  28.760  81.190
   C    102.030  29.450  79.900
   C    99.790  30.140  79.120
   C    94.680  32.320  76.540
   C    94.940  33.840  76.830
   C    95.310  34.120  78.240
   C    96.040  34.550  76.070
   O    95.990  35.770  75.930
   O    97.190  33.830  75.830
   C    98.380  34.530  75.460
   C    99.590  33.790  75.930
   C    100.560  33.280  74.820
   C    100.000  32.040  74.190
   C    101.800  32.790  75.600
   N    100.900  34.340  73.800
   O    102.060  34.810  73.800
   C    99.770  35.280  73.510
   C    100.080  36.670  74.160
   C    99.760  35.510  72.010
   C    98.350  34.810  73.950
   C    93.610  34.590  76.680
   C    92.790  34.800  75.300
   C    92.090  36.120  75.400
   C    93.670  34.900  74.020
   O    94.180  35.970  73.700
   O    93.680  33.760  73.330
   C    93.850  33.950  71.910
   C    95.330  33.940  71.420
   C    95.400  34.380  69.920
   C    95.540  35.860  69.840
   C    96.650  33.740  69.360
   N    94.150  33.940  69.090
   O    94.260  34.000  67.850
   C    93.380  32.740  69.650
   C    94.130  31.400  69.390
   C    92.020  32.660  68.890
   C    93.060  32.860  71.180
   C    91.640  33.680  75.080
   C    90.240  33.660  75.780
   C    90.340  33.730  77.330
   C    89.420  32.460  75.360
   O    89.480  31.950  74.210
   O    88.540  32.000  76.270
   C    87.500  31.140  75.880
   C    87.210  30.130  77.000
   C    85.940  29.290  76.820
   C    85.620  28.690  78.230
   C    86.320  28.060  75.900
   N    84.790  30.030  76.100
   O    83.640  29.550  76.390
   C    84.950  31.550  76.130
   C    84.740  32.150  77.550
   C    83.860  32.160  75.250
   C    86.260  31.990  75.560
   C    89.290  34.840  75.330
   H    92.030  25.660  77.790
   H    91.710  24.780  76.230
   H    93.390  24.810  76.930
   H    90.650  27.550  77.030
   H    90.430  26.490  75.620
   H    90.930  28.210  75.460
   H    93.430  24.230  73.220
   H    93.980  26.390  71.910
   H    95.660  26.080  72.400
   H    92.880  24.100  70.910
   H    93.550  23.910  69.290
   H    93.230  25.490  69.920
   H    95.610  26.380  69.670
   H    96.050  24.960  68.880
   H    96.950  25.590  70.180
   H    97.090  21.140  72.270
   H    96.960  21.520  73.910
   H    95.460  21.320  72.970
   H    97.520  24.970  72.240
   H    98.200  23.460  71.660
   H    98.170  23.640  73.290
   H    96.120  24.410  74.410
   H    95.110  23.080  74.450
   H    93.640  27.410  77.630
   H    94.490  27.310  76.110
   H    93.630  30.540  74.840
   H    92.650  29.240  74.350
   H    94.480  28.990  74.440
   H    91.060  30.960  78.920
   H    89.400  29.890  79.670
   H    90.090  28.450  78.890
   H    88.070  28.390  81.260
   H    88.770  27.010  80.270
   H    88.870  27.230  82.070
   H    91.400  26.580  81.760
   H    92.290  27.660  80.860
   H    91.170  26.610  80.010
   H    90.960  32.720  81.530
   H    89.680  31.610  80.920
   H    89.870  32.100  82.590
   H    91.800  31.000  84.050
   H    92.800  29.880  83.310
   H    93.050  31.570  82.930
   H    93.080  29.720  80.910
   H    92.800  31.350  80.510
   H    95.680  28.930  77.000
   H    94.680  29.520  78.110
   H    96.070  30.890  74.650
   H    97.360  31.640  75.650
   H    97.080  29.920  75.540
   H    97.890  30.200  79.990
   H    97.870  32.760  80.100
   H    99.440  32.790  79.340
   H    99.080  31.710  83.300
   H    98.080  30.650  82.300
   H    97.580  32.230  82.450
   H    100.760  33.880  80.990
   H    99.200  34.320  81.620
   H    100.330  33.610  82.700
   H    99.960  27.810  80.660
   H    99.020  28.930  81.610
   H    100.650  28.640  82.070
   H    102.440  30.310  79.370
   H    102.780  29.270  80.670
   H    101.990  28.590  79.230
   H    99.550  29.180  78.670
   H    100.460  30.630  78.420
   H    93.820  32.210  77.200
   H    94.290  32.240  75.520
   H    94.550  33.620  78.840
   H    95.330  35.160  78.590
   H    96.230  33.620  78.530
   H    98.330  35.380  76.140
   H    99.220  33.040  76.630
   H    100.070  34.470  76.620
   H    99.760  31.290  74.940
   H    100.720  31.510  73.580
   H    99.120  32.340  73.610
   H    102.600  32.420  74.960
   H    102.370  33.590  76.090
   H    101.550  31.920  76.190
   H    99.300  37.410  74.010
   H    100.300  36.610  75.220
   H    100.930  37.200  73.740
   H    99.540  34.640  71.390
   H    98.940  36.150  71.700
   H    100.710  35.920  71.670
   H    98.010  33.920  73.420
   H    97.610  35.570  73.700
   H    92.810  34.320  77.370
   H    93.750  35.630  76.970
   H    91.550  36.260  76.330
   H    91.500  36.440  74.540
   H    92.680  37.030  75.380
   H    93.450  34.850  71.440
   H    95.820  32.990  71.610
   H    96.080  34.500  71.970
   H    96.420  36.110  70.420
   H    94.740  36.420  70.320
   H    95.670  36.150  68.800
   H    97.450  33.990  70.050
   H    96.970  34.050  68.370
   H    96.770  32.660  69.390
   H    94.510  31.290  68.380
   H    93.610  30.570  69.880
   H    94.990  31.430  70.050
   H    91.400  33.540  69.050
   H    91.460  32.010  69.560
   H    92.090  32.380  67.840
   H    93.260  31.890  71.630
   H    92.000  33.030  71.350
   H    91.340  33.590  74.040
   H    92.150  32.720  75.170
   H    90.720  34.700  77.640
   H    89.420  33.630  77.900
   H    91.000  32.970  77.760
   H    87.740  30.670  74.930
   H    87.120  30.670  77.950
   H    88.100  29.520  77.110
   H    85.170  29.480  78.830
   H    86.490  28.360  78.810
   H    84.900  27.880  78.080
   H    85.460  27.410  75.770
   H    86.620  28.350  74.890
   H    87.140  27.510  76.370
   H    84.590  33.230  77.520
   H    83.780  31.760  77.900
   H    85.500  31.800  78.250
   H    83.810  33.240  75.100
   H    82.930  31.850  75.720
   H    83.720  31.780  74.240
   H    86.520  33.040  75.700
   H    86.320  31.940  74.470
   H    89.390  35.060  74.260
   H    88.220  34.680  75.450
   H    89.400  35.810  75.820
  