239
PTMA_CHAIN5_time14
 C    77.350  56.420  52.490
   C    75.840  56.320  52.110
   C    75.430  54.890  52.700
   C    75.820  56.340  50.580
   O    75.550  55.320  49.940
   O    76.300  57.490  50.080
   C    76.570  57.550  48.690
   C    75.310  57.890  47.920
   C    75.510  57.610  46.460
   C    75.030  56.210  46.190
   C    74.600  58.480  45.630
   N    76.910  57.820  46.030
   H    77.150  57.550  45.000
   C    77.970  58.460  46.800
   C    79.180  57.560  46.680
   C    78.340  59.850  46.240
   C    77.520  58.670  48.250
   C    75.030  57.550  52.670
   C    73.520  57.540  52.600
   C    73.070  56.940  51.230
   C    72.900  56.590  53.660
   O    73.510  56.420  54.710
   O    71.770  55.940  53.270
   C    71.120  54.970  54.030
   C    69.700  54.870  53.500
   C    68.880  53.890  54.250
   C    68.390  54.460  55.500
   C    67.590  53.460  53.480
   N    69.710  52.730  54.700
   H    69.120  51.930  55.160
   C    71.210  52.650  54.860
   C    71.670  52.870  56.290
   C    71.440  51.130  54.580
   C    71.800  53.610  53.890
   C    72.830  59.010  52.780
   C    72.780  59.950  54.060
   C    72.170  61.320  53.590
   C    74.260  60.330  54.440
   O    74.760  59.650  55.280
   O    74.890  61.040  53.510
   C    76.200  61.480  53.670
   C    76.480  62.670  52.900
   C    77.850  63.230  52.930
   C    77.880  64.480  53.910
   C    78.390  63.660  51.560
   N    78.750  62.200  53.500
   H    79.720  62.650  53.720
   C    78.520  60.750  53.580
   C    78.640  60.440  55.080
   C    79.570  60.010  52.750
   C    77.090  60.330  53.230
   C    71.830  59.490  55.260
   C    71.980  59.620  56.910
   C    73.060  58.680  57.500
   C    72.310  61.140  57.260
   O    72.170  62.080  56.460
   O    72.870  61.230  58.460
   C    73.540  62.430  58.840
   C    73.320  62.700  60.250
   C    73.940  63.950  60.730
   C    73.950  63.900  62.290
   C    73.330  65.230  60.180
   N    75.330  63.980  60.380
   H    76.010  64.550  61.010
   C    75.940  63.210  59.230
   C    76.230  64.320  58.190
   C    77.250  62.650  59.690
   C    74.980  62.180  58.690
   C    70.760  59.110  57.750
   C    69.220  59.570  57.460
   C    69.120  61.110  57.190
   C    68.760  58.830  56.170
   O    68.990  57.620  55.990
   O    68.100  59.620  55.330
   C    67.680  59.030  54.150
   C    66.200  59.220  54.070
   C    65.670  58.490  52.830
   C    65.740  56.960  53.020
   C    64.260  58.850  52.510
   N    66.470  58.860  51.600
   H    66.110  58.480  50.650
   C    67.910  59.440  51.690
   C    68.010  60.690  50.740
   C    68.880  58.360  51.190
   C    68.300  59.850  53.050
   C    68.350  59.120  58.680
   C    67.900  57.700  59.080
   C    69.040  56.650  59.060
   C    66.700  57.220  58.230
   O    66.150  57.970  57.410
   O    66.230  56.100  58.690
   C    65.210  55.390  57.980
   C    65.240  53.920  58.270
   C    64.100  53.150  57.560
   C    63.870  51.760  58.180
   C    64.480  52.850  56.090
   N    62.790  53.900  57.550
   O    61.770  53.230  57.420
   C    62.710  55.410  57.570
   C    61.390  55.900  58.350
   C    62.590  56.120  56.130
   C    63.850  55.940  58.390
   C    67.400  57.760  60.490
   H    77.760  57.380  52.160
   H    77.360  56.320  53.570
   H    77.940  55.650  52.000
   H    75.270  54.910  53.780
   H    76.180  54.130  52.500
   H    74.510  54.510  52.270
   H    77.020  56.580  48.450
   H    74.520  57.220  48.270
   H    74.880  58.880  48.070
   H    75.030  55.960  45.130
   H    74.070  55.900  46.600
   H    75.720  55.460  46.580
   H    74.640  58.260  44.570
   H    74.810  59.540  45.780
   H    73.610  58.440  46.080
   H    79.860  57.770  47.510
   H    78.880  56.520  46.730
   H    79.720  57.730  45.750
   H    79.060  60.390  46.860
   H    77.450  60.480  46.210
   H    78.620  59.720  45.200
   H    77.070  59.660  48.330
   H    78.410  58.570  48.880
   H    75.270  57.750  53.720
   H    75.320  58.400  52.050
   H    72.010  57.150  51.020
   H    73.210  55.880  51.040
   H    73.510  57.440  50.360
   H    71.110  55.330  55.060
   H    69.230  55.820  53.740
   H    69.630  54.770  52.420
   H    67.540  55.130  55.350
   H    68.020  53.750  56.240
   H    69.100  55.120  55.980
   H    67.810  52.680  52.740
   H    67.010  54.210  52.950
   H    66.830  53.090  54.180
   H    72.760  52.820  56.360
   H    71.270  53.820  56.640
   H    71.260  52.110  56.950
   H    71.160  50.800  53.580
   H    72.520  51.190  54.420
   H    71.350  50.420  55.400
   H    71.650  53.360  52.840
   H    72.880  53.720  53.920
   H    71.780  58.830  52.530
   H    73.150  59.560  51.900
   H    72.480  62.020  54.360
   H    72.680  61.500  52.650
   H    71.110  61.180  53.360
   H    76.390  61.710  54.720
   H    75.770  63.390  53.300
   H    76.090  62.560  51.880
   H    78.680  65.190  53.700
   H    77.800  64.160  54.950
   H    76.920  64.990  53.780
   H    78.370  62.840  50.840
   H    77.720  64.400  51.110
   H    79.430  63.980  51.560
   H    79.390  61.000  55.640
   H    79.120  59.460  55.170
   H    77.700  60.390  55.620
   H    79.640  60.390  51.730
   H    80.610  60.160  53.020
   H    79.480  58.930  52.830
   H    76.930  59.360  53.700
   H    77.050  60.190  52.150
   H    72.000  58.410  55.310
   H    70.810  59.690  54.940
   H    74.110  58.970  57.390
   H    72.870  57.670  57.140
   H    73.070  58.610  58.590
   H    73.230  63.250  58.190
   H    73.530  61.830  60.880
   H    72.230  62.690  60.360
   H    74.590  63.050  62.530
   H    72.940  63.730  62.650
   H    74.280  64.830  62.740
   H    73.600  65.450  59.150
   H    72.240  65.270  60.290
   H    73.670  66.070  60.770
   H    75.410  64.770  57.630
   H    76.930  65.040  58.600
   H    76.990  64.050  57.470
   H    77.140  61.980  60.550
   H    77.720  62.030  58.930
   H    77.920  63.490  59.880
   H    75.140  61.250  59.230
   H    75.210  61.770  57.700
   H    70.720  58.030  57.820
   H    71.050  59.520  58.720
   H    69.580  61.380  56.240
   H    69.530  61.560  58.090
   H    68.090  61.450  57.060
   H    67.940  57.980  54.030
   H    65.980  60.290  54.140
   H    65.780  58.740  54.950
   H    65.190  56.620  53.900
   H    66.740  56.550  52.940
   H    65.280  56.410  52.200
   H    63.830  58.330  51.650
   H    64.080  59.920  52.420
   H    63.520  58.460  53.210
   H    67.430  61.550  51.110
   H    67.670  60.490  49.730
   H    68.990  61.160  50.710
   H    69.400  57.920  52.040
   H    69.640  58.790  50.540
   H    68.390  57.640  50.530
   H    68.050  60.910  53.050
   H    69.380  59.890  53.190
   H    68.810  59.630  59.530
   H    67.420  59.700  58.650
   H    69.360  56.320  58.070
   H    69.930  57.050  59.550
   H    68.720  55.760  59.590
   H    65.340  55.610  56.920
   H    65.390  53.650  59.310
   H    66.110  53.650  57.680
   H    63.140  51.080  57.740
   H    63.770  51.760  59.270
   H    64.840  51.290  57.990
   H    65.100  51.960  55.960
   H    63.640  52.610  55.430
   H    64.870  53.760  55.640
   H    61.330  56.960  58.570
   H    60.500  55.780  57.720
   H    61.150  55.410  59.290
   H    63.480  55.810  55.580
   H    62.670  57.200  56.250
   H    61.630  55.860  55.680
   H    63.630  55.600  59.410
   H    63.890  57.030  58.510
   H    67.330  56.770  60.960
   H    68.200  58.310  60.980
   H    66.410  58.220  60.590
  