239
PTMA_CHAIN8_time12
 C    59.590  38.070  54.060
   C    58.840  37.090  55.010
   C    57.560  37.710  55.390
   C    59.730  36.730  56.230
   O    59.420  36.900  57.390
   O    60.950  36.320  55.880
   C    62.020  36.410  56.790
   C    62.220  35.060  57.480
   C    63.270  35.180  58.560
   C    62.550  35.640  59.790
   C    63.920  33.870  58.750
   N    64.250  36.220  58.350
   H    65.010  36.380  59.120
   C    64.350  37.070  57.120
   C    64.300  38.550  57.510
   C    65.760  36.850  56.580
   C    63.320  36.730  56.090
   C    58.690  35.780  54.120
   C    57.780  34.610  54.440
   C    58.050  34.140  55.940
   C    56.300  35.020  54.200
   O    55.540  34.900  55.120
   O    56.070  35.810  53.110
   C    54.670  36.130  52.820
   C    54.240  37.320  53.590
   C    52.780  37.600  53.340
   C    51.910  36.880  54.340
   C    52.420  39.110  53.400
   N    52.380  37.170  52.010
   H    51.330  36.950  51.810
   C    53.310  36.840  50.880
   C    52.780  35.570  50.080
   C    53.460  38.120  50.060
   C    54.670  36.360  51.340
   C    58.210  33.340  53.530
   C    57.130  32.280  53.060
   C    58.100  31.280  52.360
   C    56.240  32.830  51.870
   O    55.000  32.890  51.990
   O    56.960  33.250  50.800
   C    56.320  33.410  49.550
   C    56.290  32.090  48.840
   C    55.580  32.230  47.460
   C    54.040  31.960  47.660
   C    56.280  31.390  46.450
   N    55.820  33.630  46.920
   H    55.260  34.000  46.060
   C    56.930  34.510  47.350
   C    56.400  36.020  47.400
   C    58.080  34.450  46.340
   C    57.370  34.250  48.790
   C    56.290  31.580  54.200
   C    55.590  30.150  53.990
   C    54.920  30.020  52.560
   C    56.600  28.980  54.140
   O    57.800  29.150  54.390
   O    56.000  27.750  54.290
   C    56.750  26.530  54.120
   C    57.470  26.150  55.420
   C    58.140  24.760  55.420
   C    58.370  24.470  56.870
   C    59.420  24.740  54.560
   N    57.120  23.720  55.030
   H    56.990  22.790  55.590
   C    56.190  24.080  53.920
   C    56.800  23.800  52.530
   C    54.980  23.140  54.110
   C    55.650  25.470  54.020
   C    54.350  30.000  55.040
   C    54.440  30.180  56.610
   C    53.200  29.460  57.120
   C    55.640  29.340  57.200
   O    55.530  28.210  57.630
   O    56.820  30.000  57.230
   C    57.990  29.400  57.690
   C    59.120  30.230  57.150
   C    60.450  29.670  57.500
   C    60.770  28.440  56.640
   C    61.480  30.820  57.310
   N    60.460  29.260  58.920
   H    61.400  29.250  59.470
   C    59.300  28.910  59.720
   C    59.470  29.610  61.040
   C    59.310  27.310  59.780
   C    58.000  29.550  59.110
   C    54.470  31.670  57.180
   C    53.230  32.680  57.270
   C    52.630  33.050  55.880
   C    53.810  33.990  57.980
   O    54.870  34.020  58.580
   O    52.910  35.090  57.920
   C    53.200  36.310  58.540
   C    53.920  37.380  57.710
   C    54.160  38.650  58.530
   C    54.070  39.860  57.580
   C    55.640  38.560  59.110
   N    53.250  38.850  59.700
   O    53.280  39.970  60.190
   C    52.040  37.980  60.000
   C    50.720  38.860  60.000
   C    52.260  37.350  61.380
   C    51.830  36.920  58.880
   C    52.090  32.190  58.220
   H    59.920  38.950  54.600
   H    60.530  37.690  53.680
   H    58.880  38.490  53.340
   H    56.880  37.970  54.580
   H    57.720  38.590  56.010
   H    57.070  36.970  56.020
   H    61.770  37.170  57.530
   H    61.280  34.760  57.940
   H    62.530  34.320  56.740
   H    62.050  36.600  59.780
   H    63.280  35.700  60.600
   H    61.910  34.880  60.230
   H    63.100  33.150  58.820
   H    64.590  33.800  59.610
   H    64.440  33.610  57.830
   H    65.230  38.780  58.040
   H    64.200  39.330  56.750
   H    63.570  38.830  58.270
   H    65.940  35.780  56.630
   H    66.540  37.270  57.220
   H    65.670  37.120  55.530
   H    63.640  35.940  55.410
   H    63.280  37.520  55.340
   H    58.560  36.160  53.100
   H    59.700  35.390  54.060
   H    58.900  33.510  56.190
   H    57.290  33.400  56.200
   H    57.850  34.830  56.760
   H    53.980  35.290  52.960
   H    54.390  37.300  54.670
   H    54.930  38.150  53.430
   H    50.880  37.240  54.290
   H    52.040  35.840  54.040
   H    52.250  37.150  55.340
   H    53.010  39.740  52.740
   H    52.590  39.480  54.410
   H    51.370  39.300  53.180
   H    53.260  35.450  49.100
   H    52.840  34.640  50.650
   H    51.740  35.740  49.790
   H    52.470  38.430  49.730
   H    53.870  38.980  50.590
   H    54.110  38.010  49.190
   H    55.250  37.280  51.260
   H    55.110  35.520  50.810
   H    59.080  32.810  53.910
   H    58.560  33.810  52.610
   H    58.710  31.740  51.590
   H    58.780  30.870  53.100
   H    57.580  30.440  51.900
   H    55.300  33.800  49.580
   H    55.950  31.230  49.420
   H    57.310  31.770  48.620
   H    53.600  32.720  48.310
   H    53.830  30.950  48.010
   H    53.520  32.010  46.700
   H    56.210  30.330  46.710
   H    55.780  31.560  45.500
   H    57.360  31.510  46.410
   H    57.190  36.710  47.100
   H    56.160  36.320  48.420
   H    55.690  36.170  46.590
   H    58.540  33.470  46.310
   H    57.580  34.550  45.370
   H    58.850  35.220  46.420
   H    57.520  35.190  49.330
   H    58.400  33.880  48.830
   H    55.600  32.320  54.620
   H    56.960  31.350  55.030
   H    54.090  30.720  52.490
   H    54.480  29.050  52.350
   H    55.490  30.320  51.680
   H    57.290  26.420  53.180
   H    56.780  26.210  56.260
   H    58.320  26.760  55.750
   H    58.790  23.490  57.060
   H    57.480  24.580  57.480
   H    59.160  25.110  57.250
   H    60.070  25.480  55.030
   H    60.000  23.820  54.580
   H    59.130  25.060  53.560
   H    57.460  22.940  52.570
   H    56.080  23.420  51.800
   H    57.260  24.610  51.970
   H    54.320  23.290  54.960
   H    54.250  23.320  53.310
   H    55.170  22.060  54.070
   H    55.060  25.680  54.910
   H    54.860  25.590  53.280
   H    53.630  30.710  54.640
   H    53.890  29.030  54.880
   H    52.220  29.790  56.790
   H    53.140  29.500  58.210
   H    53.210  28.390  56.930
   H    58.000  28.360  57.360
   H    58.980  31.250  57.520
   H    58.960  30.380  56.080
   H    60.440  27.500  57.100
   H    61.850  28.430  56.480
   H    60.340  28.360  55.640
   H    61.170  31.710  57.860
   H    61.670  30.970  56.250
   H    62.500  30.590  57.610
   H    59.580  30.690  61.020
   H    60.330  29.210  61.580
   H    58.620  29.490  61.710
   H    59.850  26.900  58.930
   H    58.350  26.810  59.940
   H    59.890  27.030  60.670
   H    57.910  30.580  59.460
   H    57.170  29.040  59.610
   H    54.850  31.620  58.200
   H    55.230  32.320  56.770
   H    53.330  33.510  55.190
   H    52.190  32.110  55.550
   H    51.810  33.760  55.980
   H    53.840  36.080  59.400
   H    53.340  37.720  56.850
   H    54.860  37.010  57.290
   H    53.040  40.150  57.390
   H    54.480  39.740  56.580
   H    54.530  40.730  58.070
   H    56.340  38.210  58.360
   H    55.960  39.560  59.430
   H    55.640  37.760  59.850
   H    50.660  39.540  59.150
   H    49.820  38.240  60.040
   H    50.710  39.450  60.920
   H    52.450  38.110  62.140
   H    53.210  36.840  61.520
   H    51.410  36.680  61.520
   H    51.370  37.420  58.020
   H    51.110  36.160  59.200
   H    51.360  31.440  57.930
   H    52.610  31.940  59.140
   H    51.400  32.990  58.500
  