239
PTMA_CHAIN8_time10
 C    58.370  37.610  48.790
   C    57.880  36.730  49.870
   C    56.520  37.390  50.370
   C    58.950  36.620  51.040
   O    58.620  36.700  52.220
   O    60.220  36.490  50.630
   C    61.290  36.520  51.600
   C    61.720  35.180  52.180
   C    62.950  35.360  53.030
   C    62.430  35.420  54.520
   C    63.750  34.070  52.930
   N    63.750  36.540  52.770
   H    64.510  36.670  53.550
   C    63.560  37.550  51.720
   C    63.310  38.890  52.530
   C    64.780  37.760  50.780
   C    62.440  37.060  50.840
   C    57.630  35.290  49.270
   C    56.940  34.030  50.040
   C    57.710  33.750  51.390
   C    55.480  34.280  50.280
   O    54.990  34.000  51.370
   O    54.870  35.050  49.270
   C    53.450  35.200  49.350
   C    53.030  36.550  49.850
   C    51.530  36.620  49.990
   C    51.140  36.040  51.320
   C    51.060  38.120  50.000
   N    50.790  35.950  48.970
   H    49.720  36.150  48.950
   C    51.380  35.080  47.960
   C    50.900  33.660  48.280
   C    50.860  35.470  46.610
   C    52.890  35.130  47.910
   C    57.160  32.770  49.140
   C    56.380  31.370  49.080
   C    57.390  30.470  48.320
   C    55.040  31.530  48.320
   O    53.980  31.930  48.980
   O    55.150  31.580  46.940
   C    54.000  31.270  46.190
   C    53.750  29.810  46.210
   C    52.560  29.430  45.280
   C    51.260  29.190  46.140
   C    52.990  28.280  44.350
   N    52.240  30.510  44.350
   H    51.200  30.560  44.030
   C    53.200  31.560  43.890
   C    52.340  32.890  43.920
   C    53.600  31.170  42.510
   C    54.330  31.640  44.770
   C    56.190  30.820  50.550
   C    55.650  29.350  50.780
   C    54.670  28.810  49.700
   C    56.860  28.280  50.870
   O    58.000  28.600  50.600
   O    56.410  27.030  51.310
   C    57.250  25.820  51.230
   C    58.400  25.890  52.200
   C    59.200  24.670  52.310
   C    59.940  24.790  53.600
   C    60.250  24.430  51.270
   N    58.260  23.500  52.410
   H    58.500  22.660  53.070
   C    56.970  23.390  51.670
   C    57.370  22.700  50.300
   C    56.130  22.400  52.440
   C    56.270  24.760  51.500
   C    54.800  29.210  52.110
   C    55.290  29.560  53.590
   C    54.270  28.750  54.430
   C    56.690  28.980  53.910
   O    56.810  28.120  54.750
   O    57.690  29.800  53.530
   C    59.000  29.520  54.020
   C    59.940  30.230  53.090
   C    61.290  29.580  53.270
   C    61.510  28.210  52.490
   C    62.410  30.520  52.800
   N    61.510  29.360  54.720
   H    62.350  28.710  54.960
   C    60.730  29.940  55.800
   C    61.440  31.220  56.060
   C    60.870  28.980  57.000
   C    59.260  30.090  55.390
   C    55.330  31.110  54.010
   C    54.130  31.950  54.500
   C    52.970  31.950  53.470
   C    54.670  33.380  54.720
   O    55.890  33.580  54.640
   O    53.800  34.350  54.710
   C    54.160  35.620  55.080
   C    53.920  36.650  54.020
   C    54.070  38.120  54.460
   C    53.110  38.990  53.620
   C    55.450  38.530  54.100
   N    53.930  38.430  55.960
   O    54.010  39.610  56.390
   C    53.790  37.320  56.930
   C    52.680  37.740  58.000
   C    55.120  37.180  57.710
   C    53.320  36.040  56.310
   C    53.620  31.420  55.840
   H    57.630  38.110  48.170
   H    59.040  38.360  49.210
   H    59.010  37.070  48.090
   H    55.840  37.520  49.540
   H    56.800  38.420  50.620
   H    55.970  37.010  51.230
   H    61.020  37.270  52.340
   H    61.020  34.540  52.700
   H    62.040  34.570  51.330
   H    63.280  35.610  55.180
   H    61.830  34.610  54.930
   H    61.730  36.250  54.590
   H    63.890  33.820  51.880
   H    63.220  33.220  53.350
   H    64.770  34.060  53.300
   H    63.760  39.730  52.000
   H    62.240  39.010  52.700
   H    63.470  38.950  53.600
   H    64.660  38.170  49.780
   H    65.520  36.980  50.630
   H    65.360  38.460  51.380
   H    62.710  36.350  50.060
   H    62.160  37.970  50.320
   H    57.110  35.500  48.330
   H    58.610  34.920  48.980
   H    57.430  32.810  51.880
   H    57.410  34.460  52.150
   H    58.780  33.580  51.220
   H    53.080  34.410  49.990
   H    53.600  36.850  50.730
   H    53.240  37.290  49.080
   H    51.500  35.020  51.360
   H    51.450  36.570  52.220
   H    50.050  36.050  51.360
   H    50.020  38.090  50.320
   H    51.220  38.570  49.020
   H    51.620  38.750  50.690
   H    51.040  33.020  47.410
   H    51.610  33.300  49.020
   H    49.870  33.560  48.620
   H    49.780  35.530  46.570
   H    51.160  36.490  46.390
   H    51.310  34.890  45.800
   H    53.220  35.900  47.200
   H    53.290  34.240  47.430
   H    58.180  32.390  49.240
   H    57.270  33.140  48.120
   H    57.880  31.020  47.520
   H    58.260  30.110  48.860
   H    56.880  29.600  47.900
   H    53.220  31.930  46.580
   H    53.440  29.470  47.200
   H    54.660  29.250  46.000
   H    50.510  28.790  45.460
   H    50.930  30.140  46.550
   H    51.370  28.430  46.920
   H    53.100  27.310  44.830
   H    52.160  28.220  43.650
   H    53.940  28.420  43.850
   H    52.300  33.130  44.980
   H    51.320  32.750  43.550
   H    52.810  33.750  43.460
   H    52.690  31.210  41.900
   H    54.340  31.820  42.050
   H    54.040  30.180  42.490
   H    54.670  32.680  44.720
   H    55.140  31.060  44.330
   H    55.430  31.440  51.000
   H    57.110  30.930  51.120
   H    53.790  29.410  49.470
   H    54.210  27.860  49.970
   H    55.260  28.550  48.820
   H    57.610  25.770  50.200
   H    57.870  26.090  53.140
   H    59.060  26.750  52.040
   H    60.880  25.330  53.490
   H    60.190  23.760  53.890
   H    59.300  25.230  54.350
   H    60.910  23.630  51.600
   H    59.760  24.130  50.340
   H    60.900  25.260  50.990
   H    56.530  22.210  49.810
   H    57.740  23.470  49.620
   H    58.090  21.890  50.430
   H    55.240  22.090  51.890
   H    56.570  21.470  52.780
   H    55.790  22.940  53.320
   H    55.670  25.100  52.350
   H    55.560  24.700  50.670
   H    53.960  29.880  51.920
   H    54.360  28.210  52.140
   H    53.220  28.990  54.280
   H    54.490  28.720  55.500
   H    54.440  27.680  54.310
   H    59.150  28.440  54.100
   H    60.020  31.310  53.190
   H    59.630  30.310  52.040
   H    62.530  27.940  52.210
   H    60.860  28.150  51.620
   H    61.120  27.460  53.180
   H    63.370  30.020  52.740
   H    62.620  31.170  53.650
   H    62.190  31.120  51.920
   H    60.990  31.650  56.960
   H    61.390  31.970  55.270
   H    62.480  31.020  56.290
   H    61.870  28.600  57.160
   H    60.250  28.090  56.840
   H    60.460  29.370  57.930
   H    58.950  31.140  55.370
   H    58.630  29.610  56.130
   H    56.050  31.190  54.820
   H    55.860  31.670  53.230
   H    52.470  30.990  53.340
   H    52.160  32.590  53.820
   H    53.220  32.230  52.440
   H    55.190  35.720  55.410
   H    52.940  36.390  53.620
   H    54.540  36.470  53.140
   H    53.370  38.850  52.570
   H    53.250  40.030  53.930
   H    52.050  38.770  53.740
   H    55.720  38.400  53.050
   H    55.510  39.590  54.320
   H    56.280  38.130  54.680
   H    52.930  38.650  58.540
   H    51.720  37.710  57.480
   H    52.530  36.900  58.670
   H    55.980  36.990  57.070
   H    55.090  36.310  58.360
   H    55.430  38.070  58.250
   H    52.290  36.170  56.000
   H    53.280  35.170  56.970
   H    54.400  31.060  56.510
   H    53.090  32.220  56.360
   H    52.940  30.570  55.850
  