239
PTMA_CHAIN9_time12
 C    76.370  40.330  48.020
   C    76.600  39.870  49.530
   C    78.170  39.800  49.590
   C    75.960  38.490  49.700
   O    76.570  37.550  50.190
   O    74.660  38.460  49.440
   C    74.000  37.200  49.400
   C    73.120  36.960  50.560
   C    72.680  35.510  50.560
   C    73.580  34.540  51.300
   C    71.280  35.480  51.270
   N    72.490  34.960  49.200
   H    72.130  33.940  49.030
   C    72.500  35.740  47.990
   C    73.250  34.900  46.970
   C    71.120  35.920  47.450
   C    73.070  37.100  48.250
   C    75.900  40.940  50.440
   C    75.640  40.840  52.010
   C    76.980  40.330  52.510
   C    75.430  42.250  52.550
   O    75.880  42.660  53.620
   O    74.730  43.020  51.770
   C    74.510  44.360  52.030
   C    75.670  45.190  51.520
   C    75.440  46.700  51.880
   C    76.240  46.990  53.160
   C    76.050  47.470  50.650
   N    73.990  47.120  52.020
   H    73.760  48.150  52.280
   C    72.870  46.160  52.010
   C    72.290  45.990  53.410
   C    71.940  46.780  50.990
   C    73.360  44.870  51.320
   C    74.540  39.760  52.440
   C    73.530  39.950  53.640
   C    72.840  38.510  53.680
   C    72.330  40.880  53.310
   O    72.430  41.710  52.410
   O    71.270  40.780  54.110
   C    70.040  41.510  53.770
   C    69.760  42.510  54.800
   C    68.470  43.190  54.430
   C    68.710  44.410  53.540
   C    67.770  43.650  55.700
   N    67.410  42.350  53.680
   H    66.390  42.710  53.580
   C    67.690  40.970  53.220
   C    67.590  40.940  51.680
   C    66.550  40.090  53.770
   C    68.990  40.440  53.780
   C    74.150  40.100  55.100
   C    73.660  40.970  56.360
   C    73.440  42.380  55.930
   C    72.430  40.300  57.020
   O    71.880  39.270  56.610
   O    71.910  41.080  57.880
   C    70.980  40.690  58.830
   C    71.440  41.270  60.090
   C    70.640  40.570  61.180
   C    70.910  41.460  62.410
   C    71.110  39.110  61.460
   N    69.200  40.630  60.930
   H    68.520  40.550  61.780
   C    68.590  40.580  59.560
   C    68.320  39.100  59.260
   C    67.230  41.380  59.580
   C    69.550  41.130  58.580
   C    74.790  41.130  57.490
   C    75.640  39.940  58.150
   C    76.200  40.520  59.490
   C    74.740  38.760  58.560
   O    74.060  38.720  59.580
   O    74.740  37.750  57.680
   C    73.830  36.650  57.830
   C    73.450  36.200  56.450
   C    72.770  34.820  56.290
   C    71.380  35.230  55.820
   C    73.460  33.880  55.300
   N    72.560  34.130  57.580
   H    71.680  33.490  57.670
   C    73.280  34.460  58.840
   C    73.820  33.160  59.440
   C    72.300  35.060  59.850
   C    74.450  35.380  58.410
   C    76.840  39.590  57.160
   C    78.130  38.850  57.660
   C    77.820  37.630  58.590
   C    79.050  39.810  58.510
   O    79.520  39.520  59.630
   O    79.420  40.790  57.760
   C    80.460  41.730  58.080
   C    81.650  41.390  57.240
   C    82.890  42.320  57.780
   C    83.910  42.280  56.590
   C    83.550  41.720  59.060
   N    82.420  43.740  57.940
   O    83.270  44.580  58.200
   C    81.050  44.210  57.670
   C    81.100  44.910  56.340
   C    80.630  45.110  58.780
   C    79.940  43.100  57.730
   C    78.930  38.350  56.450
   H    76.730  39.560  47.340
   H    75.320  40.440  47.770
   H    76.770  41.310  47.780
   H    78.450  39.140  50.420
   H    78.560  40.810  49.700
   H    78.640  39.330  48.720
   H    74.710  36.390  49.230
   H    73.740  37.110  51.450
   H    72.300  37.670  50.500
   H    73.750  34.930  52.310
   H    74.530  34.370  50.790
   H    73.020  33.620  51.450
   H    70.440  35.950  50.770
   H    71.300  35.930  52.260
   H    70.980  34.430  51.350
   H    72.860  33.900  46.780
   H    73.240  35.370  45.990
   H    74.320  34.800  47.160
   H    70.250  36.140  48.060
   H    70.740  35.000  47.010
   H    71.110  36.640  46.630
   H    72.260  37.830  48.260
   H    73.570  37.400  47.330
   H    76.520  41.800  50.200
   H    74.930  41.020  49.940
   H    77.840  40.870  52.110
   H    77.140  39.260  52.400
   H    77.030  40.450  53.590
   H    74.280  44.490  53.090
   H    76.640  44.950  51.960
   H    75.830  44.920  50.480
   H    77.280  46.990  52.840
   H    75.890  47.840  53.740
   H    76.090  46.240  53.940
   H    75.710  47.050  49.700
   H    77.120  47.310  50.700
   H    75.810  48.530  50.650
   H    71.980  46.910  53.890
   H    71.550  45.200  53.460
   H    73.100  45.660  54.070
   H    72.480  47.310  50.210
   H    71.460  46.000  50.390
   H    71.310  47.430  51.600
   H    73.550  44.940  50.240
   H    72.540  44.170  51.470
   H    74.910  38.740  52.430
   H    73.850  39.830  51.600
   H    72.090  38.500  54.480
   H    72.270  38.300  52.770
   H    73.490  37.650  53.820
   H    70.140  41.710  52.700
   H    70.490  43.290  55.030
   H    69.580  41.950  55.720
   H    67.730  44.850  53.320
   H    69.280  44.040  52.680
   H    69.280  45.200  54.030
   H    66.980  44.380  55.540
   H    67.310  42.880  56.320
   H    68.460  44.060  56.450
   H    67.650  39.930  51.290
   H    68.440  41.460  51.240
   H    66.680  41.440  51.330
   H    65.570  40.290  53.350
   H    66.850  39.050  53.660
   H    66.290  40.170  54.830
   H    69.280  39.520  53.280
   H    68.860  39.960  54.750
   H    75.170  40.320  54.790
   H    74.360  39.090  55.430
   H    73.090  42.990  56.760
   H    72.690  42.550  55.150
   H    74.360  42.830  55.560
   H    71.030  39.600  58.890
   H    71.400  42.360  60.030
   H    72.500  41.160  60.320
   H    71.980  41.490  62.610
   H    70.590  40.900  63.290
   H    70.520  42.470  62.430
   H    72.190  39.090  61.620
   H    70.960  38.720  62.470
   H    70.810  38.370  60.730
   H    67.960  38.550  60.130
   H    67.510  39.130  58.540
   H    69.210  38.550  58.940
   H    66.620  41.360  58.680
   H    66.640  41.090  60.450
   H    67.540  42.410  59.760
   H    69.600  42.210  58.540
   H    69.390  40.720  57.580
   H    75.580  41.790  57.150
   H    74.160  41.660  58.210
   H    75.370  40.760  60.160
   H    76.810  41.400  59.320
   H    76.770  39.810  60.080
   H    72.950  37.090  58.300
   H    74.390  36.030  55.920
   H    72.860  36.930  55.900
   H    70.690  34.380  55.820
   H    71.360  35.780  54.880
   H    70.830  35.960  56.410
   H    74.400  33.520  55.720
   H    73.670  34.410  54.370
   H    72.770  33.040  55.260
   H    73.020  32.620  59.940
   H    74.700  33.270  60.060
   H    74.080  32.440  58.660
   H    72.790  35.760  60.520
   H    71.840  34.320  60.490
   H    71.540  35.640  59.320
   H    75.240  34.840  57.900
   H    74.990  35.620  59.330
   H    76.300  39.020  56.410
   H    77.140  40.490  56.610
   H    78.690  37.160  59.050
   H    77.130  37.840  59.410
   H    77.310  36.750  58.190
   H    80.680  41.650  59.150
   H    81.590  41.510  56.160
   H    81.890  40.330  57.400
   H    84.260  41.290  56.300
   H    84.790  42.910  56.740
   H    83.500  42.680  55.660
   H    84.290  40.950  58.870
   H    83.980  42.510  59.690
   H    82.840  41.330  59.790
   H    81.810  45.740  56.310
   H    81.350  44.230  55.530
   H    80.120  45.360  56.170
   H    81.440  45.650  59.260
   H    80.290  44.610  59.690
   H    79.830  45.770  58.430
   H    79.400  43.100  56.790
   H    79.130  43.390  58.400
   H    78.410  37.700  55.750
   H    79.290  39.220  55.890
   H    79.880  37.930  56.780
  