239
PTMA_CHAIN9_time500
 C    91.360  48.690  61.720
   C    91.020  48.910  63.290
   C    92.160  49.700  63.870
   C    90.820  47.490  63.960
   O    91.190  47.270  65.110
   O    90.000  46.620  63.240
   C    90.100  45.130  63.390
   C    89.310  44.720  64.640
   C    88.970  43.230  64.700
   C    89.460  42.580  66.000
   C    87.420  42.910  64.670
   N    89.740  42.560  63.600
   H    90.380  41.690  63.770
   C    89.620  43.030  62.150
   C    90.850  42.660  61.400
   C    88.400  42.390  61.620
   C    89.340  44.470  62.160
   C    89.700  49.740  63.310
   C    88.690  49.930  64.530
   C    89.590  50.210  65.790
   C    87.760  51.200  64.350
   O    87.400  51.860  65.370
   O    87.580  51.620  63.060
   C    87.100  52.920  62.780
   C    88.070  53.450  61.700
   C    87.750  54.840  61.230
   C    88.620  55.870  62.060
   C    88.160  54.990  59.760
   N    86.310  55.180  61.490
   H    86.060  56.220  61.680
   C    85.270  54.130  61.520
   C    84.170  54.560  62.510
   C    84.660  54.130  60.160
   C    85.850  52.720  61.920
   C    87.890  48.620  64.910
   C    86.280  48.490  64.760
   C    86.130  46.970  64.940
   C    85.850  48.690  63.250
   O    86.610  49.190  62.380
   O    84.600  48.520  63.010
   C    84.130  48.450  61.650
   C    83.300  49.570  61.320
   C    82.900  49.490  59.850
   C    83.910  50.240  58.970
   C    81.460  50.090  59.630
   N    82.740  48.120  59.280
   H    82.410  48.060  58.240
   C    82.830  46.950  60.130
   C    83.720  45.970  59.510
   C    81.460  46.280  60.220
   C    83.260  47.270  61.500
   C    85.540  49.390  65.900
   C    84.170  50.170  65.800
   C    84.220  51.240  64.760
   C    83.030  49.120  65.470
   O    83.310  47.960  65.570
   O    81.820  49.610  65.180
   C    80.700  48.760  65.060
   C    79.790  49.230  66.160
   C    78.670  48.300  66.430
   C    77.400  48.960  67.120
   C    79.200  47.170  67.300
   N    78.220  47.620  65.170
   H    77.300  47.050  65.260
   C    78.650  48.020  63.810
   C    78.800  46.790  63.020
   C    77.440  48.800  63.230
   C    79.850  48.870  63.820
   C    83.820  51.000  67.180
   C    84.140  50.670  68.660
   C    83.310  51.700  69.380
   C    83.560  49.290  68.950
   O    82.390  48.970  68.750
   O    84.480  48.340  69.190
   C    84.180  46.990  69.400
   C    83.560  46.220  68.220
   C    83.410  44.760  68.530
   C    81.940  44.330  68.760
   C    83.790  43.920  67.240
   N    84.200  44.330  69.690
   H    83.810  43.440  70.190
   C    85.490  44.870  70.020
   C    86.670  44.100  69.340
   C    85.710  44.580  71.440
   C    85.560  46.380  69.780
   C    85.640  50.910  69.000
   C    86.190  50.840  70.480
   C    86.890  52.230  70.790
   C    87.210  49.710  70.690
   O    86.990  48.900  71.550
   O    88.300  49.790  69.900
   C    89.380  48.940  70.140
   C    89.340  47.710  69.250
   C    90.680  46.960  69.440
   C    91.010  46.280  68.090
   C    90.380  45.780  70.400
   N    91.910  47.660  69.980
   O    92.910  47.030  70.390
   C    91.930  49.130  69.810
   C    92.820  49.500  68.560
   C    92.590  49.730  71.090
   C    90.540  49.810  69.710
   C    85.140  50.810  71.590
   H    90.750  47.910  61.250
   H    91.220  49.590  61.130
   H    92.400  48.370  61.710
   H    93.120  49.210  63.770
   H    92.140  49.880  64.940
   H    92.270  50.690  63.440
   H    91.100  44.740  63.550
   H    89.840  45.100  65.510
   H    88.410  45.320  64.690
   H    89.070  41.570  66.110
   H    89.160  43.110  66.900
   H    90.550  42.510  66.070
   H    86.850  43.390  63.870
   H    86.880  43.060  65.600
   H    87.330  41.840  64.490
   H    90.890  41.620  61.090
   H    90.870  43.230  60.470
   H    91.720  42.870  62.020
   H    88.470  41.300  61.610
   H    88.340  42.660  60.560
   H    87.460  42.700  62.080
   H    88.290  44.720  62.300
   H    89.690  44.860  61.200
   H    89.880  50.700  62.840
   H    89.030  49.310  62.570
   H    88.920  50.500  66.600
   H    90.240  51.080  65.660
   H    90.240  49.400  66.100
   H    86.980  53.580  63.640
   H    89.000  53.300  62.250
   H    88.100  52.830  60.810
   H    88.240  55.900  63.090
   H    89.680  55.640  61.960
   H    88.490  56.910  61.750
   H    87.970  56.000  59.390
   H    87.510  54.300  59.220
   H    89.190  54.710  59.580
   H    83.540  53.680  62.640
   H    84.560  54.670  63.530
   H    83.690  55.490  62.220
   H    83.750  53.550  60.270
   H    84.440  55.130  59.790
   H    85.210  53.530  59.440
   H    86.010  52.050  61.080
   H    85.050  52.250  62.500
   H    88.260  48.150  65.820
   H    88.080  47.940  64.080
   H    86.730  46.430  64.210
   H    86.280  46.520  65.920
   H    85.110  46.700  64.700
   H    84.910  48.340  60.890
   H    83.800  50.520  61.490
   H    82.410  49.680  61.950
   H    84.140  51.200  59.440
   H    83.460  50.460  58.000
   H    84.860  49.700  58.920
   H    80.780  49.850  60.450
   H    81.490  51.140  59.360
   H    80.970  49.680  58.750
   H    83.430  45.540  58.560
   H    83.990  45.120  60.140
   H    84.680  46.430  59.260
   H    81.430  45.300  60.700
   H    80.760  46.830  60.850
   H    81.110  46.260  59.190
   H    83.770  46.400  61.930
   H    82.410  47.440  62.160
   H    86.240  50.080  66.380
   H    85.310  48.720  66.720
   H    84.460  50.990  63.730
   H    84.930  52.040  64.960
   H    83.270  51.780  64.730
   H    80.990  47.720  65.210
   H    79.400  50.230  65.950
   H    80.340  49.410  67.080
   H    77.670  49.550  67.990
   H    76.820  48.100  67.460
   H    76.840  49.620  66.460
   H    78.510  46.340  67.440
   H    80.130  46.800  66.890
   H    79.380  47.540  68.310
   H    79.660  46.160  63.210
   H    77.930  46.150  63.120
   H    78.880  47.050  61.960
   H    77.490  49.000  62.170
   H    76.570  48.150  63.240
   H    77.160  49.690  63.800
   H    79.480  49.900  63.850
   H    80.450  48.780  62.920
   H    84.170  52.020  67.040
   H    82.760  51.230  67.080
   H    82.990  51.300  70.340
   H    82.300  51.860  68.990
   H    83.790  52.680  69.360
   H    83.500  46.820  70.230
   H    84.100  46.300  67.280
   H    82.600  46.690  68.000
   H    81.830  43.250  68.810
   H    81.420  44.620  67.840
   H    81.320  44.620  69.600
   H    83.120  44.200  66.420
   H    83.630  42.850  67.330
   H    84.840  44.040  67.000
   H    86.640  43.030  69.570
   H    87.590  44.440  69.800
   H    86.740  44.360  68.280
   H    85.480  43.520  71.550
   H    84.980  45.060  72.090
   H    86.710  44.690  71.860
   H    86.280  46.550  68.980
   H    86.020  46.930  70.600
   H    86.250  50.150  68.510
   H    85.890  51.830  68.480
   H    87.010  52.350  71.870
   H    87.800  52.320  70.210
   H    86.290  53.110  70.540
   H    89.590  48.700  71.180
   H    89.110  48.080  68.250
   H    88.480  47.130  69.590
   H    92.000  45.820  68.050
   H    90.760  46.980  67.300
   H    90.430  45.400  67.820
   H    89.520  45.160  70.150
   H    91.270  45.150  70.380
   H    90.150  46.130  71.410
   H    92.850  50.560  68.310
   H    93.840  49.260  68.870
   H    92.630  48.840  67.710
   H    92.780  50.780  70.860
   H    93.580  49.330  71.280
   H    91.950  49.660  71.970
   H    90.430  50.050  68.660
   H    90.530  50.750  70.260
   H    84.300  50.150  71.430
   H    85.480  50.490  72.580
   H    84.630  51.760  71.790
  