239
PTMA_CHAIN4_time18
 C    99.480  64.130  16.540
   C    99.180  65.050  17.720
   C    99.040  66.490  17.160
   C    100.430  64.860  18.640
   O    100.270  64.320  19.700
   O    101.370  65.830  18.410
   C    102.610  65.680  19.130
   C    103.760  65.490  18.170
   C    105.180  65.350  18.830
   C    105.720  63.900  18.760
   C    106.200  66.370  18.290
   N    105.090  65.750  20.310
   H    105.790  65.380  21.060
   C    104.070  66.720  20.840
   C    103.450  66.160  22.110
   C    104.860  68.000  21.250
   C    103.020  66.940  19.790
   C    97.850  64.590  18.390
   C    97.170  65.460  19.620
   C    98.060  66.260  20.570
   C    96.080  66.490  19.100
   O    95.570  67.300  19.900
   O    95.590  66.250  17.940
   C    94.670  67.150  17.370
   C    95.430  68.130  16.540
   C    94.520  69.140  15.830
   C    94.050  70.220  16.870
   C    95.310  69.730  14.640
   N    93.360  68.480  15.230
   H    92.830  68.930  14.380
   C    92.750  67.260  15.760
   C    91.610  67.600  16.760
   C    92.200  66.470  14.560
   C    93.760  66.350  16.490
   C    96.580  64.430  20.710
   C    95.260  63.660  20.450
   C    95.230  62.590  21.550
   C    95.220  63.000  19.010
   O    94.600  63.490  18.090
   O    96.050  61.930  18.900
   C    96.020  61.090  17.800
   C    95.170  59.910  18.080
   C    94.990  59.090  16.800
   C    93.770  59.580  15.910
   C    94.820  57.580  17.130
   N    96.050  59.220  15.800
   H    95.870  58.870  14.780
   C    97.380  59.760  16.160
   C    97.870  60.690  15.040
   C    98.300  58.590  16.300
   C    97.420  60.560  17.480
   C    94.010  64.580  20.600
   C    92.570  64.000  20.960
   C    92.160  62.770  20.070
   C    92.490  63.640  22.500
   O    93.140  64.350  23.280
   O    91.590  62.670  22.880
   C    91.450  62.400  24.300
   C    90.050  62.050  24.480
   C    89.770  62.130  26.000
   C    88.370  61.580  26.300
   C    89.900  63.580  26.540
   N    90.800  61.390  26.740
   H    90.530  61.140  27.770
   C    92.180  61.080  26.180
   C    93.070  62.000  27.010
   C    92.490  59.610  26.560
   C    92.320  61.210  24.650
   C    91.460  65.090  20.610
   C    90.930  66.250  21.440
   C    90.020  66.990  20.390
   C    90.060  65.710  22.540
   O    90.470  65.710  23.760
   O    88.840  65.530  22.140
   C    87.850  65.290  23.140
   C    87.240  66.510  23.840
   C    86.300  66.110  24.950
   C    87.010  66.250  26.360
   C    84.980  66.810  24.860
   N    85.920  64.650  24.880
   H    85.630  64.120  25.790
   C    85.820  63.950  23.590
   C    84.340  63.860  23.190
   C    86.360  62.540  23.750
   C    86.620  64.620  22.510
   C    92.030  67.140  22.010
   C    91.700  68.650  22.310
   C    90.620  68.890  23.320
   C    91.570  69.580  21.090
   O    92.080  69.230  19.990
   O    90.820  70.700  21.360
   C    90.590  71.730  20.400
   C    89.630  71.320  19.290
   C    89.490  72.420  18.280
   C    88.140  72.290  17.480
   C    90.620  72.280  17.260
   N    89.420  73.810  18.820
   O    89.300  74.750  18.020
   C    89.860  74.200  20.170
   C    88.920  75.280  20.750
   C    91.290  74.880  20.060
   C    89.990  72.900  21.060
   C    93.010  69.220  22.970
   H    100.450  64.370  16.090
   H    99.440  63.100  16.900
   H    98.640  64.300  15.870
   H    98.980  67.100  18.060
   H    98.090  66.540  16.620
   H    99.860  66.740  16.490
   H    102.520  64.940  19.920
   H    103.550  64.580  17.610
   H    103.840  66.280  17.420
   H    106.650  63.860  19.330
   H    105.830  63.460  17.770
   H    105.040  63.240  19.310
   H    106.390  66.070  17.260
   H    107.090  66.260  18.910
   H    105.820  67.390  18.310
   H    104.220  65.900  22.840
   H    102.680  66.810  22.530
   H    103.050  65.160  21.970
   H    105.680  67.630  21.870
   H    104.300  68.800  21.750
   H    105.260  68.480  20.360
   H    103.360  67.730  19.130
   H    102.060  67.290  20.160
   H    97.160  64.450  17.560
   H    98.080  63.590  18.750
   H    98.810  65.790  21.210
   H    97.500  66.780  21.350
   H    98.610  67.080  20.100
   H    93.980  67.570  18.100
   H    96.070  68.610  17.290
   H    96.060  67.520  15.890
   H    94.770  70.600  17.590
   H    93.550  71.040  16.350
   H    93.280  69.760  17.480
   H    94.650  69.830  13.780
   H    96.020  69.020  14.220
   H    95.780  70.700  14.800
   H    91.020  68.370  16.260
   H    90.950  66.770  17.010
   H    91.930  67.990  17.730
   H    91.750  67.180  13.860
   H    93.020  66.020  14.000
   H    91.480  65.700  14.830
   H    94.450  65.850  15.810
   H    93.180  65.550  16.950
   H    96.640  64.840  21.720
   H    97.380  63.680  20.720
   H    96.130  61.980  21.590
   H    95.280  63.050  22.540
   H    94.460  61.850  21.380
   H    95.620  61.620  16.930
   H    94.240  60.350  18.440
   H    95.510  59.340  18.950
   H    94.000  60.560  15.500
   H    92.820  59.630  16.460
   H    93.580  58.980  15.030
   H    94.210  57.580  18.040
   H    94.360  56.950  16.360
   H    95.730  57.070  17.430
   H    98.940  60.900  15.070
   H    97.400  61.670  15.000
   H    97.760  60.200  14.070
   H    97.840  57.860  16.970
   H    98.370  58.080  15.340
   H    99.350  58.720  16.590
   H    98.170  61.340  17.430
   H    97.840  59.870  18.210
   H    93.990  65.160  19.680
   H    94.180  65.380  21.330
   H    92.830  61.910  20.120
   H    92.030  63.010  19.010
   H    91.150  62.410  20.280
   H    91.830  63.220  24.900
   H    89.810  61.090  24.040
   H    89.460  62.780  23.930
   H    88.390  61.100  27.280
   H    88.140  60.780  25.610
   H    87.510  62.240  26.300
   H    89.650  64.300  25.760
   H    89.040  63.760  27.180
   H    90.800  63.880  27.080
   H    94.080  61.790  26.670
   H    92.880  63.000  26.640
   H    93.070  61.920  28.100
   H    93.400  59.190  26.150
   H    92.670  59.420  27.620
   H    91.710  59.030  26.070
   H    91.930  60.300  24.190
   H    93.370  61.310  24.340
   H    91.800  65.610  19.710
   H    90.630  64.440  20.340
   H    90.620  67.280  19.530
   H    89.500  67.910  20.670
   H    89.290  66.350  19.910
   H    88.200  64.680  23.970
   H    86.800  67.210  23.130
   H    88.050  67.110  24.260
   H    86.470  66.090  27.290
   H    87.380  67.260  26.490
   H    87.860  65.570  26.440
   H    84.330  66.640  25.720
   H    84.260  66.420  24.140
   H    84.990  67.890  24.760
   H    84.010  63.090  22.490
   H    84.020  64.680  22.560
   H    83.710  63.660  24.050
   H    86.580  61.990  22.840
   H    85.670  61.960  24.360
   H    87.300  62.560  24.290
   H    86.140  65.300  21.810
   H    86.980  63.920  21.760
   H    92.580  66.750  22.860
   H    92.870  67.220  21.320
   H    89.610  68.730  22.960
   H    90.840  68.290  24.200
   H    90.620  69.920  23.650
   H    91.510  72.040  19.910
   H    88.630  71.160  19.700
   H    89.940  70.360  18.870
   H    87.320  72.380  18.200
   H    88.200  71.370  16.890
   H    87.980  73.060  16.730
   H    91.630  72.330  17.680
   H    90.750  71.270  16.890
   H    90.430  73.050  16.510
   H    89.070  75.390  21.830
   H    89.160  76.230  20.280
   H    87.850  75.170  20.580
   H    91.660  75.210  21.030
   H    91.210  75.720  19.370
   H    91.910  74.110  19.600
   H    88.960  72.660  21.310
   H    90.490  73.270  21.960
   H    93.390  68.590  23.770
   H    93.810  69.330  22.240
   H    92.910  70.250  23.320
  