239
PTMA_CHAIN4_time8
 C    89.670  79.270  26.660
   C    88.970  78.370  25.580
   C    88.990  79.080  24.270
   C    87.470  78.140  26.070
   O    86.510  78.280  25.300
   O    87.320  77.820  27.430
   C    86.050  78.040  28.040
   C    85.460  76.640  28.230
   C    84.200  76.720  29.110
   C    82.960  77.110  28.230
   C    83.890  75.400  29.600
   N    84.300  77.680  30.230
   H    83.790  77.370  31.150
   C    85.110  78.930  30.330
   C    84.290  80.170  29.850
   C    85.630  79.130  31.740
   C    86.320  78.800  29.370
   C    89.810  77.050  25.620
   C    89.780  75.900  24.520
   C    88.280  75.570  24.330
   C    90.340  76.260  23.130
   O    89.880  75.880  22.090
   O    91.300  77.220  23.200
   C    91.860  77.800  22.040
   C    90.880  78.560  21.070
   C    91.550  79.140  19.860
   C    91.800  78.040  18.810
   C    90.790  80.200  19.110
   N    92.900  79.690  20.260
   H    93.310  80.480  19.640
   C    93.660  79.430  21.480
   C    94.790  78.420  21.000
   C    94.220  80.740  21.940
   C    92.820  78.850  22.590
   C    90.450  74.590  25.160
   C    91.600  73.600  24.690
   C    91.890  72.670  25.820
   C    92.850  74.550  24.430
   O    93.280  74.830  23.350
   O    93.180  75.230  25.530
   C    94.250  76.200  25.510
   C    95.390  75.530  26.210
   C    96.630  76.420  26.120
   C    97.440  76.010  24.880
   C    97.590  76.150  27.260
   N    96.300  77.810  26.150
   H    97.160  78.470  26.080
   C    94.940  78.390  26.540
   C    94.690  79.560  25.680
   C    95.050  78.890  28.010
   C    93.830  77.400  26.330
   C    91.070  72.970  23.370
   C    91.580  71.620  22.820
   C    93.170  71.460  22.870
   C    90.990  70.470  23.750
   O    90.080  70.700  24.550
   O    91.450  69.310  23.390
   C    91.120  68.100  24.130
   C    89.950  67.450  23.450
   C    89.520  66.070  24.070
   C    89.430  65.060  22.930
   C    88.060  66.060  24.670
   N    90.500  65.650  25.100
   H    90.250  64.970  25.920
   C    91.940  65.920  25.020
   C    92.380  66.110  26.530
   C    92.620  64.720  24.430
   C    92.250  67.160  24.190
   C    91.260  71.430  21.310
   C    89.800  71.640  20.640
   C    89.990  70.990  19.280
   C    88.730  70.890  21.450
   O    88.580  69.630  21.350
   O    88.090  71.740  22.320
   C    87.150  71.240  23.340
   C    87.030  72.300  24.470
   C    86.100  71.870  25.580
   C    86.850  71.040  26.650
   C    85.510  72.990  26.350
   N    85.010  70.960  25.160
   H    84.260  70.700  25.920
   C    84.790  70.440  23.820
   C    83.310  70.650  23.510
   C    84.870  68.910  23.990
   C    85.740  71.000  22.830
   C    89.330  73.110  20.540
   C    88.040  73.530  19.670
   C    88.540  73.660  18.250
   C    87.450  74.890  20.280
   O    86.950  74.970  21.360
   O    87.350  75.920  19.370
   C    86.490  77.010  19.630
   C    87.300  78.100  20.250
   C    86.320  79.130  20.720
   C    87.120  80.350  21.190
   C    85.510  78.560  21.880
   N    85.420  79.530  19.610
   O    84.810  80.590  19.700
   C    85.000  78.670  18.420
   C    85.110  79.580  17.230
   C    83.530  78.130  18.560
   C    86.000  77.530  18.280
   C    86.790  72.570  19.650
   H    89.870  78.720  27.580
   H    90.630  79.740  26.450
   H    89.020  80.110  26.890
   H    88.730  78.470  23.410
   H    90.010  79.350  23.990
   H    88.360  79.970  24.290
   H    85.320  78.590  27.440
   H    85.330  76.290  27.200
   H    86.150  75.930  28.680
   H    82.740  76.340  27.490
   H    83.160  78.060  27.730
   H    82.100  77.200  28.890
   H    83.020  75.530  30.240
   H    84.600  74.970  30.300
   H    83.780  74.630  28.830
   H    83.640  79.950  29.000
   H    83.590  80.560  30.590
   H    84.950  80.950  29.470
   H    86.290  79.990  31.830
   H    86.090  78.200  32.090
   H    84.730  79.250  32.360
   H    87.140  78.380  29.950
   H    86.690  79.790  29.090
   H    90.860  77.170  25.860
   H    89.400  76.510  26.470
   H    87.640  75.420  25.190
   H    88.210  74.670  23.710
   H    87.730  76.260  23.690
   H    92.380  77.000  21.520
   H    90.120  77.890  20.660
   H    90.260  79.320  21.540
   H    92.380  78.390  17.960
   H    92.420  77.240  19.230
   H    90.960  77.450  18.430
   H    91.130  80.440  18.100
   H    90.650  81.150  19.620
   H    89.730  79.940  19.050
   H    95.550  78.410  21.790
   H    94.480  77.380  20.860
   H    95.150  78.630  20.000
   H    93.510  81.560  21.820
   H    94.530  80.750  22.980
   H    95.110  80.980  21.370
   H    92.240  79.630  23.100
   H    93.490  78.320  23.270
   H    89.650  73.910  25.450
   H    90.840  75.010  26.080
   H    90.980  72.250  26.260
   H    92.560  71.820  25.730
   H    92.360  73.240  26.610
   H    94.480  76.580  24.520
   H    95.570  74.600  25.670
   H    95.150  75.200  27.220
   H    97.980  75.070  25.030
   H    98.220  76.690  24.550
   H    96.840  75.840  23.990
   H    97.100  76.140  28.240
   H    97.960  75.130  27.120
   H    98.450  76.800  27.190
   H    93.780  80.100  25.920
   H    94.870  79.330  24.620
   H    95.510  80.270  25.710
   H    95.410  78.110  28.690
   H    95.790  79.680  28.090
   H    94.120  79.280  28.420
   H    92.930  77.760  25.810
   H    93.480  77.010  27.280
   H    91.170  73.760  22.620
   H    89.980  73.030  23.430
   H    93.780  72.300  22.560
   H    93.400  70.580  22.260
   H    93.550  71.220  23.860
   H    90.930  68.320  25.180
   H    90.080  67.430  22.360
   H    89.070  68.060  23.630
   H    90.400  65.040  22.440
   H    88.670  65.390  22.220
   H    89.120  64.070  23.270
   H    88.010  66.070  25.750
   H    87.500  66.890  24.250
   H    87.510  65.140  24.480
   H    92.460  65.080  26.870
   H    93.330  66.590  26.760
   H    91.560  66.630  27.020
   H    92.520  63.800  25.000
   H    92.340  64.450  23.410
   H    93.650  64.920  24.130
   H    92.370  67.010  23.120
   H    93.140  67.750  24.400
   H    91.850  72.180  20.790
   H    91.630  70.450  21.000
   H    90.060  69.900  19.350
   H    90.810  71.400  18.700
   H    89.030  71.080  18.760
   H    87.480  70.270  23.700
   H    86.630  73.180  23.980
   H    87.960  72.570  24.970
   H    86.800  70.020  26.280
   H    86.450  70.970  27.660
   H    87.910  71.260  26.790
   H    84.670  72.790  27.010
   H    85.070  73.760  25.710
   H    86.170  73.590  26.990
   H    82.970  71.630  23.170
   H    82.740  70.260  24.350
   H    82.900  70.070  22.690
   H    84.190  68.300  23.400
   H    84.590  68.670  25.020
   H    85.880  68.540  23.870
   H    85.360  71.980  22.540
   H    85.740  70.420  21.910
   H    89.130  73.500  21.540
   H    90.140  73.770  20.220
   H    89.070  74.600  18.070
   H    89.190  72.880  17.870
   H    87.780  73.850  17.490
   H    85.640  76.660  20.220
   H    87.950  78.500  19.460
   H    87.910  77.930  21.140
   H    87.590  80.780  20.300
   H    87.850  80.260  22.000
   H    86.320  81.040  21.460
   H    84.950  79.370  22.350
   H    84.660  77.950  21.580
   H    86.100  78.110  22.680
   H    85.160  79.000  16.310
   H    84.260  80.260  17.240
   H    85.980  80.230  17.310
   H    83.500  77.450  19.410
   H    83.180  77.570  17.700
   H    82.690  78.800  18.740
   H    86.880  77.830  17.730
   H    85.610  76.690  17.710
   H    85.970  73.020  19.080
   H    86.990  71.590  19.220
   H    86.390  72.320  20.630
  