239
PTMA_CHAIN7_time50
 C    100.340  8.330  12.080
   C    100.470  9.710  12.900
   C    101.560  9.550  13.910
   C    99.120  9.850  13.660
   O    99.020  9.910  14.910
   O    97.970  9.790  12.880
   C    96.710  9.480  13.440
   C    96.030  10.680  14.110
   C    94.740  10.340  14.820
   C    94.930  9.550  16.120
   C    94.040  11.600  15.220
   N    93.840  9.540  13.870
   H    93.030  10.150  13.470
   C    94.480  8.510  13.010
   C    94.580  7.150  13.900
   C    93.440  8.250  11.830
   C    95.760  8.910  12.370
   C    100.700  10.940  11.960
   C    100.820  12.450  12.460
   C    99.620  12.900  13.250
   C    102.060  12.730  13.410
   O    102.050  13.480  14.410
   O    103.110  12.060  13.030
   C    104.340  12.070  13.690
   C    104.750  10.720  14.000
   C    106.120  10.660  14.750
   C    105.890  10.510  16.270
   C    106.990  9.520  14.220
   N    106.880  11.910  14.480
   H    107.780  12.080  15.080
   C    106.680  12.840  13.310
   C    106.700  14.290  13.840
   C    107.840  12.620  12.340
   C    105.320  12.630  12.650
   C    100.930  13.350  11.170
   C    100.740  14.920  11.130
   C    99.350  15.450  11.420
   C    100.860  15.090  9.620
   O    101.910  15.150  9.060
   O    99.590  15.010  8.970
   C    99.370  15.270  7.550
   C    97.920  15.240  7.460
   C    97.410  15.450  6.010
   C    97.570  16.880  5.540
   C    95.930  15.100  5.900
   N    98.040  14.490  5.060
   H    97.470  14.230  4.170
   C    99.450  14.120  5.260
   C    100.310  15.050  4.550
   C    99.610  12.710  4.690
   C    99.890  14.080  6.740
   C    101.860  15.740  11.940
   C    102.330  17.200  11.810
   C    103.530  17.240  10.780
   C    101.260  18.250  11.370
   O    101.150  19.340  12.000
   O    100.900  18.150  10.070
   C    100.260  19.200  9.360
   C    100.830  19.390  8.040
   C    100.170  20.570  7.360
   C    100.420  20.400  5.860
   C    100.670  21.930  7.980
   N    98.700  20.530  7.530
   H    98.100  20.870  6.680
   C    98.060  20.060  8.800
   C    97.910  21.240  9.800
   C    96.660  19.600  8.590
   C    98.790  18.920  9.300
   C    102.950  17.730  13.110
   C    102.320  18.030  14.570
   C    103.310  19.000  15.240
   C    100.860  18.700  14.680
   O    100.700  19.810  15.190
   O    99.840  17.780  14.520
   C    98.570  18.320  14.790
   C    97.740  18.570  13.510
   C    96.310  18.990  13.840
   C    96.170  20.490  14.120
   C    95.430  18.650  12.650
   N    95.740  18.240  15.020
   H    94.700  18.460  15.260
   C    96.560  17.420  15.950
   C    95.760  16.070  16.160
   C    96.450  18.060  17.360
   C    97.950  17.140  15.450
   C    102.260  16.700  15.530
   C    102.060  16.660  17.050
   C    103.500  16.800  17.700
   C    101.460  15.260  17.390
   O    100.310  14.970  16.930
   O    102.130  14.560  18.310
   C    101.690  13.350  18.900
   C    101.730  12.200  17.970
   C    101.160  10.890  18.550
   C    101.700  9.680  17.640
   C    99.620  10.850  18.500
   N    101.740  10.700  19.980
   O    101.680  9.580  20.410
   C    102.620  11.740  20.710
   C    104.050  11.110  20.760
   C    102.220  11.750  22.200
   C    102.690  13.140  20.020
   C    101.220  17.680  17.760
   H    101.220  7.930  11.570
   H    99.830  7.560  12.650
   H    99.810  8.590  11.160
   H    102.520  9.380  13.420
   H    101.410  8.730  14.610
   H    101.750  10.390  14.580
   H    97.020  8.740  14.180
   H    96.670  11.300  14.750
   H    95.620  11.320  13.330
   H    95.900  9.850  16.500
   H    94.940  8.460  16.050
   H    94.250  9.770  16.940
   H    94.600  11.990  16.070
   H    93.090  11.420  15.730
   H    94.000  12.250  14.350
   H    95.550  7.020  14.380
   H    93.760  7.010  14.600
   H    94.510  6.250  13.290
   H    93.290  9.190  11.300
   H    92.430  8.050  12.210
   H    93.780  7.610  11.030
   H    95.570  9.590  11.540
   H    96.260  8.070  11.900
   H    101.560  10.690  11.340
   H    99.840  10.920  11.280
   H    99.740  13.900  13.670
   H    99.590  12.290  14.150
   H    98.680  12.900  12.690
   H    104.290  12.660  14.600
   H    104.050  10.190  14.640
   H    104.820  10.110  13.100
   H    105.800  9.440  16.420
   H    106.820  10.690  16.820
   H    105.070  11.020  16.780
   H    107.990  9.750  14.570
   H    107.070  9.520  13.130
   H    106.750  8.540  14.620
   H    105.850  14.360  14.510
   H    107.590  14.480  14.450
   H    106.690  14.980  13.000
   H    107.880  11.630  11.880
   H    107.760  13.290  11.480
   H    108.850  12.750  12.730
   H    105.370  12.060  11.720
   H    104.900  13.600  12.380
   H    100.180  12.960  10.480
   H    101.920  13.210  10.740
   H    99.200  15.530  12.500
   H    99.160  16.430  10.990
   H    98.500  14.810  11.190
   H    99.750  16.230  7.210
   H    97.410  15.920  8.140
   H    97.570  14.290  7.860
   H    97.660  16.950  4.460
   H    98.510  17.350  5.820
   H    96.710  17.530  5.740
   H    95.650  14.110  6.250
   H    95.220  15.730  6.440
   H    95.550  15.230  4.880
   H    100.110  15.110  3.480
   H    101.310  14.610  4.560
   H    100.220  16.070  4.920
   H    100.680  12.520  4.590
   H    99.100  11.930  5.250
   H    99.150  12.650  3.700
   H    100.960  13.910  6.870
   H    99.450  13.190  7.200
   H    102.740  15.110  12.060
   H    101.450  15.640  12.940
   H    104.310  16.600  11.200
   H    103.960  18.240  10.700
   H    103.170  16.900  9.810
   H    100.430  20.120  9.920
   H    100.660  18.410  7.590
   H    101.860  19.720  8.160
   H    101.490  20.410  5.650
   H    99.890  21.120  5.230
   H    100.080  19.400  5.610
   H    99.890  22.680  7.870
   H    100.940  21.870  9.030
   H    101.590  22.340  7.560
   H    98.820  21.620  10.270
   H    97.630  22.100  9.190
   H    97.190  21.050  10.600
   H    96.180  18.980  9.350
   H    95.980  20.400  8.290
   H    96.650  18.970  7.700
   H    98.470  17.940  8.950
   H    98.350  18.930  10.300
   H    103.730  17.050  13.440
   H    103.490  18.650  12.900
   H    104.310  18.630  15.500
   H    102.830  19.350  16.150
   H    103.390  19.950  14.710
   H    98.630  19.070  15.580
   H    97.630  17.720  12.840
   H    98.310  19.330  12.980
   H    95.160  20.680  14.470
   H    96.540  21.040  13.250
   H    96.830  20.760  14.940
   H    94.380  18.760  12.940
   H    95.530  17.640  12.260
   H    95.700  19.240  11.770
   H    96.380  15.280  16.570
   H    95.350  15.700  15.220
   H    94.960  16.190  16.880
   H    96.640  17.430  18.230
   H    95.510  18.480  17.710
   H    97.150  18.880  17.440
   H    97.920  16.320  14.730
   H    98.540  16.790  16.300
   H    101.620  15.930  15.090
   H    103.260  16.280  15.470
   H    104.050  17.710  17.450
   H    103.570  16.790  18.790
   H    104.210  16.040  17.350
   H    100.690  13.550  19.300
   H    102.710  11.950  17.550
   H    101.110  12.480  17.110
   H    101.400  8.680  17.960
   H    102.790  9.610  17.590
   H    101.250  9.870  16.670
   H    99.250  10.870  17.480
   H    99.370  9.880  18.920
   H    99.270  11.720  19.060
   H    104.900  11.650  21.190
   H    104.070  10.140  21.260
   H    104.230  10.750  19.750
   H    102.850  12.350  22.860
   H    102.140  10.780  22.700
   H    101.200  12.080  22.390
   H    103.690  13.240  19.610
   H    102.540  13.940  20.750
   H    101.000  17.310  18.760
   H    101.550  18.720  17.800
   H    100.260  17.760  17.250
  