239
PTMA_CHAIN9_time18
 C    75.860  44.370  50.040
   C    76.530  43.890  51.360
   C    77.930  43.360  51.100
   C    75.680  42.790  52.020
   O    76.050  41.680  52.280
   O    74.470  43.210  52.330
   C    73.450  42.300  52.750
   C    73.550  42.040  54.280
   C    72.450  41.180  54.880
   C    72.930  39.740  55.200
   C    71.990  41.810  56.250
   N    71.310  41.060  53.950
   H    70.800  40.110  53.800
   C    70.940  42.240  53.090
   C    70.270  41.580  51.820
   C    69.750  43.000  53.690
   C    72.090  43.090  52.690
   C    76.510  45.190  52.140
   C    77.330  45.330  53.530
   C    77.270  44.030  54.400
   C    78.860  45.640  53.280
   O    79.680  45.530  54.170
   O    79.120  46.060  52.000
   C    80.490  46.290  51.600
   C    81.180  44.960  51.280
   C    82.630  45.130  50.790
   C    83.540  45.400  52.050
   C    83.080  43.840  50.040
   N    82.780  46.350  49.830
   O    83.720  46.340  49.110
   C    81.760  47.450  49.740
   C    82.380  48.670  50.560
   C    81.530  47.660  48.270
   C    80.450  47.030  50.330
   C    76.700  46.470  54.400
   C    76.640  47.990  54.060
   C    75.710  48.590  55.150
   C    75.900  48.190  52.680
   O    76.440  48.630  51.670
   O    74.620  47.710  52.660
   C    73.840  47.870  51.390
   C    73.200  49.250  51.420
   C    72.050  49.440  50.360
   C    72.390  50.490  49.370
   C    70.710  49.790  51.030
   N    71.910  48.210  49.580
   H    71.560  48.260  48.550
   C    71.980  46.870  50.210
   C    72.570  45.920  49.170
   C    70.570  46.480  50.410
   C    72.800  46.900  51.410
   C    78.110  48.600  54.020
   C    78.410  50.090  54.320
   C    77.590  51.080  53.480
   C    78.140  50.340  55.830
   O    77.560  51.380  56.190
   O    78.500  49.320  56.650
   C    78.160  49.340  58.010
   C    77.930  47.980  58.500
   C    77.620  47.850  60.000
   C    77.890  46.380  60.390
   C    76.110  48.160  60.220
   N    78.500  48.730  60.810
   O    78.490  48.560  62.060
   C    79.280  49.950  60.230
   C    78.590  51.230  60.660
   C    80.620  49.790  60.900
   C    79.360  49.980  58.720
   C    79.960  50.300  53.920
   C    81.070  51.210  54.640
   C    80.510  52.560  55.200
   C    81.790  50.390  55.790
   O    82.270  50.940  56.700
   O    81.680  49.100  55.700
   C    82.320  48.170  56.630
   C    81.590  46.900  56.210
   C    82.030  45.790  57.070
   C    81.040  45.700  58.240
   C    82.080  44.490  56.370
   N    83.360  46.050  57.740
   H    83.460  45.820  58.800
   C    84.440  46.900  57.230
   C    85.250  45.900  56.290
   C    85.360  47.250  58.390
   C    83.850  48.040  56.400
   C    82.060  51.710  53.470
   C    83.570  51.880  53.580
   C    83.960  52.520  52.160
   C    84.430  50.560  53.640
   O    84.020  49.430  53.570
   O    85.800  50.670  53.410
   C    86.700  49.510  53.300
   C    86.850  49.170  51.830
   C    87.920  48.000  51.620
   C    88.640  48.210  50.300
   C    87.130  46.610  51.680
   N    88.980  47.930  52.760
   O    89.650  46.880  52.700
   C    88.890  48.820  54.020
   C    90.360  49.250  54.330
   C    88.410  47.930  55.170
   C    87.990  50.040  53.810
   C    84.030  52.890  54.660
   H    76.610  45.010  49.590
   H    75.660  43.560  49.330
   H    74.850  44.740  50.220
   H    78.620  43.220  51.930
   H    78.520  43.990  50.420
   H    77.890  42.460  50.480
   H    73.370  41.370  52.180
   H    74.570  41.690  54.430
   H    73.530  43.010  54.780
   H    72.180  39.040  55.550
   H    73.680  39.780  55.990
   H    73.420  39.260  54.350
   H    71.610  42.830  56.180
   H    72.910  41.790  56.830
   H    71.250  41.240  56.810
   H    69.720  40.640  51.960
   H    69.630  42.320  51.350
   H    71.030  41.310  51.090
   H    69.420  43.870  53.120
   H    70.030  43.400  54.670
   H    68.900  42.330  53.810
   H    72.210  43.970  53.330
   H    71.830  43.650  51.790
   H    76.920  46.010  51.560
   H    75.450  45.400  52.310
   H    76.200  43.860  54.520
   H    77.540  44.090  55.460
   H    77.680  43.150  53.900
   H    80.990  46.870  52.370
   H    81.070  44.290  52.140
   H    80.640  44.440  50.500
   H    83.180  45.080  53.030
   H    84.530  45.000  51.800
   H    83.750  46.470  52.090
   H    83.270  43.030  50.750
   H    83.990  43.960  49.470
   H    82.340  43.450  49.340
   H    81.720  49.500  50.330
   H    82.380  48.410  51.620
   H    83.420  48.950  50.380
   H    82.430  47.990  47.740
   H    81.310  46.700  47.810
   H    80.720  48.370  48.110
   H    79.890  46.410  49.640
   H    79.880  47.940  50.490
   H    77.060  46.370  55.430
   H    75.650  46.200  54.470
   H    75.700  49.680  55.090
   H    74.650  48.360  55.030
   H    76.070  48.320  56.140
   H    74.430  47.590  50.520
   H    73.980  50.010  51.370
   H    72.880  49.480  52.430
   H    72.540  51.480  49.800
   H    71.540  50.530  48.690
   H    73.260  50.270  48.760
   H    70.710  50.830  51.360
   H    69.930  49.810  50.260
   H    70.480  49.120  51.850
   H    73.560  46.140  48.780
   H    72.030  45.760  48.230
   H    72.590  44.940  49.650
   H    69.940  46.740  49.550
   H    70.400  45.450  50.730
   H    70.140  47.010  51.260
   H    73.140  45.910  51.720
   H    72.110  47.290  52.160
   H    78.500  48.550  53.000
   H    78.680  47.900  54.620
   H    77.930  52.110  53.610
   H    76.520  51.030  53.710
   H    77.670  50.840  52.420
   H    77.250  49.920  58.190
   H    78.730  47.300  58.220
   H    77.050  47.460  58.100
   H    78.860  46.070  59.990
   H    77.140  45.650  60.090
   H    77.940  46.360  61.480
   H    75.800  47.980  61.250
   H    76.010  49.240  60.100
   H    75.340  47.590  59.700
   H    77.540  51.330  60.390
   H    78.560  51.130  61.740
   H    79.120  52.160  60.460
   H    80.530  50.050  61.950
   H    80.950  48.760  60.810
   H    81.480  50.400  60.620
   H    80.230  49.400  58.430
   H    79.530  51.010  58.420
   H    80.400  49.310  53.840
   H    79.820  50.690  52.910
   H    81.260  53.330  55.380
   H    79.980  52.450  56.140
   H    79.930  53.120  54.470
   H    82.100  48.620  57.590
   H    81.890  46.580  55.210
   H    80.510  47.000  56.260
   H    81.360  44.960  58.960
   H    80.040  45.460  57.850
   H    80.940  46.650  58.760
   H    82.220  43.700  57.100
   H    82.910  44.480  55.670
   H    81.170  44.210  55.840
   H    86.320  46.100  56.320
   H    84.830  45.780  55.290
   H    85.210  44.940  56.800
   H    84.850  47.730  59.220
   H    86.140  47.980  58.140
   H    85.800  46.320  58.750
   H    84.010  47.840  55.340
   H    84.300  48.980  56.720
   H    81.940  50.870  52.790
   H    81.610  52.600  53.030
   H    83.510  53.490  51.950
   H    85.020  52.730  52.230
   H    83.870  51.870  51.290
   H    86.400  48.610  53.830
   H    87.150  50.080  51.320
   H    85.930  48.880  51.320
   H    89.290  47.350  50.110
   H    89.330  49.050  50.350
   H    87.960  48.390  49.470
   H    87.740  45.770  51.340
   H    86.630  46.340  52.610
   H    86.380  46.640  50.890
   H    90.820  49.790  53.500
   H    90.410  49.920  55.190
   H    90.980  48.370  54.470
   H    87.700  48.400  55.860
   H    89.300  47.650  55.730
   H    87.980  46.970  54.890
   H    88.500  50.730  53.150
   H    87.800  50.520  54.770
   H    83.440  53.790  54.540
   H    83.770  52.470  55.630
   H    85.080  53.190  54.640
  