239
PTMA_CHAIN3_time18
 C    89.720  49.010  55.840
   C    90.260  50.420  56.280
   C    91.730  50.600  55.660
   C    90.310  50.370  57.810
   O    91.330  50.680  58.410
   O    89.190  49.890  58.480
   C    89.300  49.540  59.840
   C    89.200  50.710  60.770
   C    89.390  50.330  62.230
   C    90.850  50.120  62.530
   C    88.830  51.460  63.150
   N    88.570  49.160  62.480
   H    88.120  49.000  63.460
   C    88.260  48.060  61.540
   C    89.290  46.920  61.710
   C    86.850  47.560  61.990
   C    88.170  48.580  60.130
   C    89.310  51.480  55.930
   C    89.580  53.030  55.950
   C    90.120  53.480  57.410
   C    90.610  53.450  54.880
   O    91.750  53.710  55.180
   O    90.100  53.630  53.650
   C    90.970  53.790  52.560
   C    91.520  52.430  52.050
   C    92.360  52.650  50.830
   C    93.730  53.380  51.110
   C    92.670  51.290  50.130
   N    91.630  53.490  49.820
   H    91.650  53.180  48.770
   C    90.800  54.640  50.170
   C    91.750  55.850  50.260
   C    89.870  54.920  48.980
   C    90.070  54.440  51.550
   C    88.190  53.740  55.610
   C    87.810  55.210  55.950
   C    87.400  55.480  57.450
   C    86.580  55.500  55.030
   O    86.540  55.350  53.780
   O    85.350  55.780  55.770
   C    84.160  56.120  55.120
   C    83.400  57.140  55.950
   C    82.070  57.650  55.440
   C    82.320  59.090  54.940
   C    81.020  57.670  56.530
   N    81.680  56.820  54.270
   H    81.030  57.340  53.570
   C    82.050  55.410  54.030
   C    82.430  55.380  52.570
   C    80.810  54.570  54.260
   C    83.220  55.000  54.880
   C    89.070  56.170  55.480
   C    89.080  57.800  55.730
   C    87.760  58.350  55.050
   C    89.280  58.270  57.190
   O    88.920  59.340  57.490
   O    90.000  57.420  57.930
   C    90.480  57.670  59.160
   C    89.420  57.610  60.160
   C    89.950  57.890  61.540
   C    89.430  56.800  62.500
   C    89.550  59.310  62.100
   N    91.440  57.770  61.610
   H    91.890  58.480  62.310
   C    92.280  57.040  60.600
   C    93.470  57.920  60.090
   C    92.990  55.830  61.300
   C    91.470  56.620  59.400
   C    90.420  58.250  54.920
   C    91.140  59.670  54.810
   C    90.070  60.810  54.530
   C    91.950  60.020  56.050
   O    92.440  59.170  56.780
   O    92.060  61.380  56.260
   C    92.650  61.910  57.440
   C    93.250  63.300  57.000
   C    93.830  64.110  58.130
   C    95.360  64.310  58.030
   C    93.230  65.520  58.180
   N    93.650  63.270  59.410
   H    94.430  63.350  60.170
   C    92.380  62.580  59.760
   C    91.530  63.410  60.750
   C    92.810  61.350  60.590
   C    91.670  62.200  58.500
   C    92.050  59.690  53.480
   C    93.530  59.020  53.520
   C    94.000  59.180  52.010
   C    93.640  57.510  53.890
   O    92.810  56.680  53.580
   O    94.720  57.240  54.720
   C    94.860  55.990  55.270
   C    95.920  55.250  54.520
   C    96.190  53.830  54.960
   C    97.370  53.240  54.230
   C    95.070  52.790  54.790
   N    96.520  53.960  56.450
   O    97.300  53.100  56.980
   C    95.760  54.860  57.370
   C    96.680  55.190  58.560
   C    94.460  54.230  57.950
   C    95.420  56.160  56.680
   C    94.590  59.780  54.420
   H    89.860  48.890  54.770
   H    90.160  48.160  56.370
   H    88.650  48.840  55.920
   H    91.730  50.510  54.580
   H    92.460  49.870  56.030
   H    92.240  51.490  56.030
   H    90.280  49.110  60.080
   H    89.950  51.450  60.480
   H    88.270  51.220  60.520
   H    91.520  50.910  62.190
   H    91.300  49.130  62.450
   H    90.980  50.210  63.600
   H    88.820  51.220  64.210
   H    87.810  51.670  62.810
   H    89.450  52.350  63.070
   H    89.400  46.510  62.710
   H    89.260  46.080  61.010
   H    90.270  47.340  61.500
   H    85.990  48.150  61.680
   H    86.740  47.420  63.070
   H    86.540  46.550  61.720
   H    87.220  49.100  60.000
   H    88.220  47.650  59.570
   H    88.870  51.270  54.950
   H    88.450  51.400  56.600
   H    90.970  52.920  57.810
   H    89.280  53.330  58.080
   H    90.480  54.510  57.430
   H    91.860  54.400  52.700
   H    92.070  51.980  52.870
   H    90.700  51.730  51.850
   H    94.270  52.690  51.750
   H    94.310  53.610  50.210
   H    93.590  54.270  51.720
   H    93.360  50.720  50.760
   H    93.260  51.450  49.230
   H    91.770  50.730  49.920
   H    92.370  55.820  51.160
   H    92.440  55.930  49.420
   H    91.090  56.720  50.270
   H    89.310  55.820  49.270
   H    90.330  55.100  48.010
   H    89.070  54.230  48.740
   H    89.190  53.820  51.390
   H    89.790  55.410  51.970
   H    87.330  53.170  55.940
   H    88.020  53.550  54.560
   H    86.930  56.440  57.670
   H    86.630  54.740  57.650
   H    88.270  55.260  58.070
   H    84.420  56.640  54.200
   H    84.060  57.990  56.140
   H    83.290  56.800  56.980
   H    83.030  59.030  54.120
   H    82.670  59.700  55.770
   H    81.450  59.580  54.490
   H    80.070  57.960  56.060
   H    80.870  56.760  57.110
   H    81.160  58.470  57.260
   H    82.530  54.330  52.270
   H    83.340  55.930  52.340
   H    81.650  55.850  51.980
   H    81.020  53.510  54.360
   H    80.260  54.820  55.170
   H    80.020  54.800  53.540
   H    83.710  54.130  54.430
   H    82.780  54.610  55.800
   H    89.080  55.950  54.420
   H    90.050  55.800  55.780
   H    87.820  59.440  55.070
   H    86.910  58.130  55.700
   H    87.620  58.120  53.990
   H    90.880  58.680  59.140
   H    88.930  56.640  60.120
   H    88.570  58.270  60.020
   H    89.720  55.790  62.220
   H    88.350  56.860  62.500
   H    89.560  56.880  63.580
   H    89.980  60.090  61.470
   H    88.490  59.460  61.940
   H    89.860  59.540  63.120
   H    93.130  58.580  59.290
   H    93.790  58.650  60.830
   H    94.310  57.320  59.740
   H    92.280  55.170  61.800
   H    93.630  55.280  60.600
   H    93.620  56.190  62.120
   H    90.900  55.720  59.620
   H    92.120  56.350  58.570
   H    91.140  57.480  55.170
   H    90.290  57.940  53.880
   H    89.320  61.010  55.290
   H    89.520  60.540  53.630
   H    90.570  61.770  54.390
   H    93.440  61.260  57.820
   H    92.540  63.920  56.440
   H    93.930  63.030  56.190
   H    95.960  63.410  57.870
   H    95.770  64.760  58.930
   H    95.610  65.060  57.280
   H    93.420  66.010  57.230
   H    93.690  66.130  58.960
   H    92.160  65.510  58.430
   H    90.850  62.750  61.280
   H    90.810  64.020  60.200
   H    92.150  63.980  61.440
   H    93.680  60.820  60.170
   H    91.950  60.680  60.680
   H    93.130  61.570  61.610
   H    90.990  63.020  58.260
   H    91.090  61.300  58.700
   H    91.460  59.340  52.640
   H    92.250  60.740  53.270
   H    94.180  60.210  51.690
   H    94.820  58.500  51.760
   H    93.180  58.810  51.380
   H    93.950  55.390  55.210
   H    96.790  55.880  54.330
   H    95.410  55.080  53.570
   H    98.240  53.880  54.340
   H    97.190  53.190  53.160
   H    97.630  52.200  54.430
   H    95.400  51.820  54.430
   H    94.450  52.570  55.660
   H    94.390  53.070  53.980
   H    97.560  55.720  58.200
   H    96.230  55.880  59.280
   H    96.990  54.250  59.030
   H    93.920  54.910  58.610
   H    94.670  53.380  58.600
   H    93.750  53.940  57.180
   H    96.260  56.850  56.710
   H    94.610  56.580  57.270
   H    94.390  60.850  54.320
   H    94.490  59.670  55.500
   H    95.620  59.650  54.100
  