239
PTMA_CHAIN3_time6
 C    83.240  47.000  58.500
   C    84.160  48.120  59.020
   C    85.520  47.420  59.090
   C    83.660  48.440  60.480
   O    84.390  48.150  61.490
   O    82.580  49.190  60.410
   C    81.830  49.510  61.640
   C    82.430  50.810  62.120
   C    81.730  51.280  63.360
   C    82.030  50.350  64.590
   C    82.210  52.670  63.660
   N    80.250  51.220  63.180
   H    79.580  51.720  63.880
   C    79.600  50.350  62.170
   C    79.210  49.020  62.850
   C    78.380  51.090  61.700
   C    80.470  49.900  61.090
   C    84.090  49.280  58.020
   C    85.130  50.480  58.160
   C    85.270  51.030  59.610
   C    86.570  50.050  57.590
   O    87.640  50.380  58.080
   O    86.470  49.330  56.360
   C    87.560  49.170  55.510
   C    88.120  47.790  55.580
   C    89.250  47.680  54.500
   C    90.570  48.210  55.120
   C    89.460  46.250  54.000
   N    89.060  48.590  53.380
   H    89.840  48.550  52.620
   C    88.000  49.520  53.140
   C    88.590  50.930  53.140
   C    87.580  49.250  51.610
   C    86.950  49.290  54.140
   C    84.580  51.530  57.070
   C    85.100  53.050  57.010
   C    84.520  53.760  58.250
   C    84.470  53.600  55.730
   O    84.890  53.240  54.610
   O    83.320  54.240  55.940
   C    82.510  54.620  54.760
   C    82.780  56.080  54.570
   C    82.020  56.680  53.450
   C    82.730  56.370  52.100
   C    82.050  58.140  53.590
   N    80.630  56.180  53.430
   H    79.940  56.590  52.700
   C    80.160  55.060  54.290
   C    79.700  54.000  53.290
   C    78.880  55.530  55.060
   C    81.100  54.460  55.280
   C    86.700  53.170  56.950
   C    87.540  54.500  56.620
   C    87.960  54.500  55.130
   C    86.690  55.750  57.050
   O    86.010  56.310  56.240
   O    86.790  56.090  58.270
   C    86.080  57.220  58.740
   C    85.740  56.980  60.220
   C    85.160  58.190  60.920
   C    85.870  58.420  62.300
   C    83.700  57.870  61.110
   N    85.380  59.360  60.210
   H    84.620  60.130  60.390
   C    86.380  59.680  59.240
   C    85.730  60.410  58.040
   C    87.400  60.640  59.850
   C    87.080  58.400  58.840
   C    88.840  54.340  57.530
   C    90.170  55.170  57.310
   C    89.830  56.680  56.890
   C    90.960  55.360  58.630
   O    92.160  55.460  58.600
   O    90.190  55.610  59.740
   C    90.910  55.870  60.920
   C    91.180  57.400  60.950
   C    91.730  57.970  62.290
   C    93.230  58.440  62.040
   C    90.960  59.280  62.740
   N    91.750  56.950  63.360
   H    92.430  57.090  64.200
   C    90.780  55.860  63.450
   C    89.690  56.470  64.490
   C    91.490  54.690  64.120
   C    90.090  55.470  62.160
   C    91.110  54.570  56.190
   C    91.680  53.110  56.310
   C    90.860  52.190  55.420
   C    91.760  52.360  57.720
   O    90.990  52.500  58.650
   O    92.800  51.460  57.790
   C    92.870  50.470  58.820
   C    91.860  49.320  58.680
   C    92.070  48.270  59.810
   C    91.430  47.040  59.160
   C    91.390  48.490  61.100
   N    93.470  47.990  60.210
   O    93.780  46.860  60.670
   C    94.600  48.890  59.890
   C    95.890  48.130  59.390
   C    94.980  49.550  61.180
   C    94.290  49.890  58.820
   C    93.070  53.240  55.640
   H    83.260  46.090  59.100
   H    82.170  47.190  58.380
   H    83.670  46.700  57.540
   H    85.960  47.070  58.160
   H    85.420  46.490  59.650
   H    86.210  48.100  59.590
   H    81.750  48.680  62.350
   H    83.450  50.520  62.400
   H    82.340  51.490  61.270
   H    81.570  50.630  65.540
   H    83.110  50.410  64.730
   H    81.730  49.340  64.290
   H    82.790  52.980  62.790
   H    82.770  52.750  64.590
   H    81.350  53.290  63.890
   H    78.560  49.290  63.680
   H    78.770  48.280  62.180
   H    79.980  48.500  63.420
   H    78.540  52.090  61.290
   H    77.620  51.150  62.470
   H    78.010  50.480  60.880
   H    80.600  50.590  60.260
   H    79.910  49.100  60.610
   H    84.160  48.910  57.000
   H    83.060  49.630  57.940
   H    85.830  50.210  60.060
   H    84.330  51.110  60.160
   H    85.770  51.970  59.860
   H    88.320  49.920  55.720
   H    88.470  47.570  56.600
   H    87.300  47.090  55.450
   H    90.690  47.920  56.170
   H    91.410  47.740  54.610
   H    90.620  49.290  55.050
   H    88.470  45.890  53.730
   H    89.930  45.580  54.710
   H    90.080  46.230  53.100
   H    88.880  51.120  54.170
   H    89.460  51.110  52.500
   H    87.930  51.730  52.820
   H    88.440  49.490  50.980
   H    87.150  48.250  51.530
   H    86.870  49.990  51.260
   H    86.260  48.500  53.820
   H    86.390  50.230  54.140
   H    83.500  51.540  57.150
   H    84.730  51.020  56.130
   H    83.630  53.260  58.620
   H    85.220  53.730  59.080
   H    84.240  54.790  58.030
   H    82.640  54.050  53.840
   H    83.840  56.240  54.320
   H    82.690  56.680  55.480
   H    82.120  56.670  51.240
   H    82.900  55.300  52.100
   H    83.710  56.800  51.890
   H    81.610  58.600  54.480
   H    83.000  58.640  53.380
   H    81.700  58.630  52.680
   H    79.390  53.080  53.790
   H    80.450  53.650  52.580
   H    78.920  54.380  52.630
   H    78.050  55.770  54.400
   H    78.330  54.820  55.670
   H    79.150  56.320  55.760
   H    80.840  53.450  55.570
   H    81.060  54.960  56.250
   H    86.990  52.510  56.130
   H    87.020  52.700  57.880
   H    88.510  55.360  54.730
   H    87.070  54.460  54.490
   H    88.530  53.600  54.930
   H    85.180  57.470  58.160
   H    86.710  56.660  60.600
   H    85.080  56.120  60.240
   H    85.820  57.540  62.930
   H    85.470  59.290  62.820
   H    86.920  58.610  62.040
   H    83.220  57.660  60.150
   H    83.450  57.020  61.750
   H    83.220  58.780  61.450
   H    84.910  59.800  57.680
   H    85.310  61.400  58.210
   H    86.490  60.490  57.260
   H    87.150  61.700  59.780
   H    87.560  60.440  60.910
   H    88.390  60.530  59.410
   H    87.880  58.160  59.530
   H    87.550  58.660  57.890
   H    88.590  54.370  58.590
   H    89.120  53.290  57.510
   H    89.240  57.130  57.690
   H    89.290  56.840  55.950
   H    90.720  57.300  56.770
   H    91.810  55.260  60.960
   H    90.270  57.960  60.720
   H    91.860  57.630  60.130
   H    93.800  57.510  62.070
   H    93.590  59.060  62.860
   H    93.370  58.910  61.070
   H    91.320  59.790  63.640
   H    89.920  59.050  62.950
   H    91.100  60.030  61.960
   H    88.850  55.800  64.680
   H    89.210  57.300  63.980
   H    90.080  56.940  65.390
   H    90.770  54.000  64.540
   H    92.200  55.010  64.880
   H    92.020  54.150  63.330
   H    89.110  55.930  62.090
   H    89.750  54.440  62.070
   H    90.760  54.710  55.170
   H    91.950  55.250  56.080
   H    91.320  51.230  55.160
   H    89.880  51.900  55.820
   H    90.680  52.640  54.440
   H    92.740  50.940  59.800
   H    92.120  48.970  57.680
   H    90.840  49.700  58.610
   H    91.530  46.200  59.850
   H    92.060  46.650  58.360
   H    90.420  47.220  58.800
   H    91.760  49.440  61.510
   H    90.310  48.550  61.020
   H    91.630  47.740  61.860
   H    96.710  48.700  58.950
   H    96.290  47.600  60.250
   H    95.630  47.340  58.680
   H    95.250  48.830  61.940
   H    94.080  50.110  61.420
   H    95.710  50.350  61.050
   H    94.530  49.470  57.840
   H    95.060  50.660  58.910
   H    92.870  53.760  54.710
   H    93.790  53.890  56.160
   H    93.520  52.300  55.320
  