239
PTMA_CHAIN3_time0point0005
 C    105.500  54.520  68.860
   C    106.340  55.830  68.820
   C    107.810  55.400  68.760
   C    106.060  56.520  70.170
   O    106.880  56.600  71.080
   O    104.760  56.880  70.280
   C    104.240  57.120  71.610
   C    104.550  58.510  72.110
   C    104.050  58.710  73.570
   C    105.160  58.230  74.530
   C    103.850  60.230  73.810
   N    102.840  57.850  73.850
   H    102.310  58.180  74.740
   C    101.920  57.570  72.700
   C    100.840  56.540  73.110
   C    101.190  58.820  72.160
   C    102.730  56.910  71.540
   C    105.860  56.650  67.580
   C    106.750  57.780  66.920
   C    107.170  58.790  67.990
   C    107.960  57.130  66.220
   O    109.120  57.510  66.350
   O    107.570  56.110  65.400
   C    108.530  55.540  64.470
   C    108.990  54.160  64.940
   C    108.280  52.960  64.250
   C    108.960  51.670  64.810
   C    106.810  52.880  64.740
   N    108.240  53.070  62.760
   H    108.830  52.310  62.250
   C    108.440  54.420  62.160
   C    109.910  54.780  61.830
   C    107.620  54.480  60.840
   C    107.860  55.520  63.090
   C    105.860  58.440  65.800
   C    106.100  59.870  65.110
   C    105.420  60.930  66.020
   C    105.350  59.680  63.780
   O    105.780  58.940  62.890
   O    104.130  60.270  63.730
   C    103.280  59.890  62.610
   C    103.680  60.610  61.330
   C    102.790  60.200  60.130
   C    103.180  58.780  59.670
   C    103.160  61.180  58.980
   N    101.330  60.390  60.480
   H    100.680  60.040  59.680
   C    100.850  59.920  61.800
   C    100.540  58.410  61.910
   C    99.530  60.680  62.130
   C    101.850  60.300  62.940
   C    107.610  60.250  64.890
   C    108.230  61.230  63.800
   C    107.820  60.800  62.360
   C    107.850  62.730  63.790
   O    108.600  63.560  63.290
   O    106.600  62.990  64.200
   C    106.090  64.310  63.860
   C    104.570  64.240  63.600
   C    103.670  65.060  64.560
   C    103.540  64.330  65.920
   C    102.230  65.010  63.960
   N    104.190  66.430  64.850
   H    103.610  67.230  64.390
   C    105.670  66.660  64.730
   C    106.110  67.310  63.390
   C    106.080  67.600  65.880
   C    106.460  65.340  64.910
   C    109.800  61.100  63.800
   C    110.770  61.480  64.980
   C    112.080  61.950  64.300
   C    110.330  62.740  65.780
   O    110.540  63.890  65.390
   O    109.770  62.440  66.970
   C    110.010  63.440  68.000
   C    108.890  64.460  68.100
   C    109.280  65.590  69.110
   C    110.050  66.680  68.310
   C    107.970  66.230  69.620
   N    110.220  65.080  70.170
   H    110.320  65.730  71.040
   C    110.050  63.650  70.590
   C    108.730  63.350  71.320
   C    111.200  63.220  71.520
   C    110.140  62.700  69.340
   C    111.090  60.290  65.970
   C    112.130  59.140  65.680
   C    111.810  58.390  64.380
   C    112.130  58.170  66.900
   O    112.030  58.550  68.060
   O    112.460  56.900  66.530
   C    112.890  55.970  67.560
   C    112.380  54.590  67.200
   C    112.970  53.460  68.090
   C    112.710  52.140  67.320
   C    112.160  53.410  69.400
   N    114.380  53.730  68.480
   O    115.110  52.520  68.750
   C    115.170  54.670  67.650
   C    115.440  54.180  66.210
   C    116.560  54.960  68.300
   C    114.430  56.030  67.630
   C    113.590  59.630  65.650
   H    105.730  53.880  68.010
   H    105.710  53.940  69.760
   H    104.430  54.720  68.860
   H    108.020  54.830  67.860
   H    108.070  54.750  69.600
   H    108.490  56.250  68.810
   H    104.670  56.360  72.270
   H    105.620  58.730  72.070
   H    104.080  59.240  71.450
   H    105.380  57.170  74.430
   H    104.910  58.430  75.570
   H    106.090  58.750  74.330
   H    104.740  60.780  73.520
   H    103.660  60.460  74.860
   H    103.040  60.660  73.220
   H    100.110  56.930  73.820
   H    100.260  56.210  72.240
   H    101.300  55.650  73.550
   H    101.870  59.540  71.700
   H    100.640  59.330  72.960
   H    100.460  58.530  71.400
   H    102.360  57.290  70.590
   H    102.580  55.830  71.500
   H    105.610  55.940  66.800
   H    104.910  57.120  67.870
   H    107.810  59.590  67.600
   H    107.750  58.320  68.780
   H    106.310  59.240  68.480
   H    109.410  56.180  64.410
   H    110.060  54.070  64.740
   H    108.900  54.080  66.020
   H    110.020  51.630  64.560
   H    108.900  51.650  65.900
   H    108.490  50.760  64.430
   H    106.320  52.000  64.320
   H    106.200  53.750  64.470
   H    106.780  52.800  65.820
   H    109.980  55.820  61.500
   H    110.590  54.660  62.670
   H    110.310  54.170  61.020
   H    108.040  53.800  60.100
   H    106.570  54.230  61.020
   H    107.650  55.480  60.400
   H    106.780  55.380  63.200
   H    107.980  56.500  62.630
   H    104.840  58.470  66.170
   H    105.810  57.700  65.010
   H    106.030  61.200  66.880
   H    105.170  61.820  65.460
   H    104.480  60.550  66.410
   H    103.310  58.800  62.500
   H    104.720  60.400  61.090
   H    103.650  61.690  61.480
   H    102.620  58.490  58.780
   H    103.010  58.010  60.420
   H    104.240  58.740  59.420
   H    102.880  62.200  59.230
   H    104.230  61.160  58.790
   H    102.650  60.910  58.050
   H    100.150  58.160  62.900
   H    101.420  57.780  61.750
   H    99.800  58.100  61.180
   H    99.690  61.760  62.070
   H    98.730  60.400  61.440
   H    99.200  60.440  63.140
   H    101.550  59.850  63.880
   H    101.820  61.380  63.120
   H    108.130  59.300  64.710
   H    107.980  60.630  65.840
   H    107.970  59.730  62.200
   H    108.400  61.320  61.600
   H    106.790  61.050  62.120
   H    106.520  64.600  62.910
   H    104.260  63.200  63.580
   H    104.410  64.630  62.590
   H    103.190  63.310  65.790
   H    102.820  64.850  66.550
   H    104.470  64.260  66.480
   H    101.520  65.540  64.590
   H    102.200  65.450  62.960
   H    101.880  63.980  63.860
   H    107.200  67.320  63.300
   H    105.730  66.770  62.530
   H    105.770  68.340  63.300
   H    105.790  67.170  66.840
   H    107.160  67.770  65.890
   H    105.620  68.590  65.800
   H    106.340  64.930  65.910
   H    107.530  65.550  64.840
   H    110.010  60.070  63.530
   H    110.140  61.660  62.930
   H    112.480  61.210  63.600
   H    112.850  62.200  65.040
   H    111.940  62.860  63.720
   H    110.970  63.930  67.800
   H    107.980  63.950  68.410
   H    108.660  64.880  67.120
   H    109.440  67.070  67.500
   H    110.980  66.280  67.890
   H    110.300  67.540  68.930
   H    107.330  66.520  68.790
   H    108.170  67.130  70.200
   H    107.350  65.570  70.240
   H    108.590  64.000  72.190
   H    108.700  62.330  71.680
   H    107.850  63.450  70.670
   H    112.180  63.410  71.080
   H    111.170  62.150  71.730
   H    111.140  63.730  72.480
   H    109.380  61.920  69.380
   H    111.100  62.190  69.320
   H    111.420  60.730  66.910
   H    110.140  59.830  66.250
   H    111.940  59.020  63.500
   H    112.480  57.550  64.220
   H    110.790  58.000  64.390
   H    112.480  56.260  68.520
   H    112.570  54.410  66.150
   H    111.290  54.610  67.250
   H    113.310  52.070  66.410
   H    111.670  52.060  67.020
   H    112.930  51.260  67.930
   H    112.480  52.580  70.030
   H    112.270  54.330  69.980
   H    111.090  53.300  69.210
   H    116.060  54.900  65.680
   H    116.000  53.240  66.220
   H    114.530  54.030  65.620
   H    117.060  55.780  67.780
   H    117.210  54.090  68.240
   H    116.440  55.250  69.340
   H    114.840  56.640  66.820
   H    114.660  56.590  68.540
   H    113.780  60.370  66.430
   H    114.290  58.810  65.840
   H    113.870  60.050  64.690
  