239
PTMA_CHAIN7_frame4
 C    81.420  7.650  10.300
   C    82.130  8.590  11.300
   C    83.110  7.660  12.060
   C    81.050  9.160  12.240
   O    80.790  8.680  13.340
   O    80.220  9.950  11.550
   C    78.930  10.300  11.910
   C    78.760  11.690  11.460
   C    77.340  12.250  11.530
   C    77.080  12.570  13.020
   C    77.280  13.520  10.590
   N    76.230  11.220  11.130
   O    75.130  11.580  10.750
   C    76.530  9.730  11.190
   C    75.890  9.140  12.430
   C    75.980  8.960  9.910
   C    78.030  9.450  11.120
   C    82.930  9.700  10.640
   C    83.630  10.940  11.390
   C    82.580  11.850  12.080
   C    84.590  10.500  12.480
   O    84.540  10.930  13.630
   O    85.500  9.560  12.100
   C    86.280  8.940  13.120
   C    86.710  7.570  12.600
   C    87.540  6.700  13.580
   C    86.580  5.970  14.550
   C    88.240  5.630  12.670
   N    88.550  7.540  14.420
   O    89.400  7.020  15.160
   C    88.220  9.050  14.620
   C    87.380  9.180  15.900
   C    89.490  9.870  14.860
   C    87.530  9.670  13.490
   C    84.360  11.770  10.270
   C    85.860  12.150  10.190
   C    85.950  13.140  9.010
   C    86.650  10.980  9.680
   O    87.810  10.730  10.050
   O    85.950  10.210  8.820
   C    86.550  9.120  8.080
   C    86.620  9.490  6.630
   C    87.250  8.350  5.730
   C    88.780  8.570  5.860
   C    86.930  8.590  4.240
   N    86.630  6.980  6.120
   O    86.730  6.050  5.350
   C    85.860  6.740  7.400
   C    86.750  5.860  8.310
   C    84.600  5.860  7.030
   C    85.450  8.070  8.200
   C    86.500  12.750  11.460
   C    87.720  13.720  11.460
   C    88.970  13.250  10.690
   C    87.320  15.150  10.990
   O    86.340  15.730  11.440
   O    88.020  15.550  9.880
   C    87.710  16.740  9.220
   C    89.010  17.590  9.160
   C    88.860  18.870  8.310
   C    90.290  19.290  8.040
   C    88.110  19.950  9.090
   N    88.130  18.600  6.940
   O    88.450  19.180  5.860
   C    86.990  17.580  6.850
   C    85.670  18.280  7.280
   C    86.840  16.930  5.490
   C    87.330  16.390  7.800
   C    88.110  13.730  13.000
   C    88.660  15.030  13.770
   C    89.710  15.800  12.980
   C    87.530  16.020  14.170
   O    87.720  17.250  14.240
   O    86.410  15.400  14.510
   C    85.180  16.050  14.860
   C    84.080  15.330  14.050
   C    82.680  15.970  14.160
   C    82.610  17.370  13.470
   C    81.620  15.080  13.470
   N    82.310  16.100  15.600
   O    81.120  16.190  15.930
   C    83.300  16.410  16.670
   C    82.890  15.860  18.090
   C    83.390  17.900  16.870
   C    84.710  15.880  16.300
   C    89.440  14.480  15.010
   C    88.830  14.120  16.420
   C    88.390  15.350  17.130
   C    90.000  13.440  17.240
   O    91.180  13.620  16.920
   O    89.610  12.600  18.270
   C    90.620  11.920  18.960
   C    90.120  11.480  20.290
   C    91.250  10.960  21.270
   C    90.520  10.360  22.520
   C    92.280  12.080  21.730
   N    92.000  9.820  20.570
   O    92.720  9.170  21.270
   C    91.990  9.690  19.030
   C    91.690  8.200  18.700
   C    93.390  9.870  18.400
   C    90.920  10.600  18.260
   C    87.670  13.190  16.410
   H    80.690  8.120  9.640
   H    82.200  7.210  9.660
   H    80.880  6.870  10.830
   H    83.610  8.090  12.930
   H    83.690  7.080  11.340
   H    82.560  6.860  12.550
   H    78.810  10.260  13.000
   H    79.440  12.410  11.920
   H    79.030  11.740  10.400
   H    75.990  12.650  13.110
   H    77.540  13.460  13.440
   H    77.440  11.690  13.560
   H    76.430  14.140  10.900
   H    77.310  13.040  9.610
   H    78.190  14.120  10.570
   H    76.430  9.460  13.320
   H    74.840  9.420  12.540
   H    76.010  8.060  12.370
   H    74.890  8.900  9.960
   H    76.390  7.960  9.870
   H    76.280  9.450  8.990
   H    78.350  9.550  10.080
   H    78.130  8.410  11.410
   H    83.710  9.270  10.010
   H    82.240  9.960  9.840
   H    81.840  12.020  11.300
   H    83.010  12.820  12.380
   H    82.060  11.420  12.940
   H    85.690  8.830  14.040
   H    85.840  6.990  12.280
   H    87.290  7.690  11.680
   H    85.860  5.320  14.040
   H    87.150  5.450  15.320
   H    86.010  6.750  15.050
   H    87.560  5.370  11.860
   H    88.310  4.760  13.320
   H    89.200  5.890  12.230
   H    86.830  10.130  15.900
   H    86.660  8.370  16.020
   H    87.960  9.180  16.820
   H    89.230  10.910  14.660
   H    89.930  9.780  15.850
   H    90.340  9.610  14.230
   H    88.270  9.740  12.690
   H    87.230  10.670  13.790
   H    83.880  12.750  10.350
   H    84.040  11.450  9.290
   H    86.940  13.530  8.770
   H    85.630  12.720  8.060
   H    85.470  14.100  9.180
   H    87.540  8.880  8.460
   H    87.180  10.410  6.460
   H    85.600  9.690  6.300
   H    89.150  8.300  6.850
   H    89.100  9.600  5.780
   H    89.390  8.040  5.130
   H    85.950  8.250  3.910
   H    87.080  9.640  3.970
   H    87.700  8.060  3.680
   H    87.440  6.500  8.860
   H    87.330  5.060  7.840
   H    86.050  5.400  9.010
   H    84.890  4.920  6.570
   H    83.910  5.580  7.830
   H    84.020  6.410  6.280
   H    85.200  7.820  9.230
   H    84.580  8.520  7.720
   H    86.740  11.930  12.130
   H    85.690  13.210  12.040
   H    89.360  12.280  11.000
   H    89.780  13.960  10.870
   H    88.810  13.150  9.610
   H    87.040  17.430  9.740
   H    89.780  16.910  8.810
   H    89.440  17.840  10.120
   H    90.870  18.730  7.300
   H    90.920  19.370  8.930
   H    90.260  20.310  7.670
   H    87.160  19.650  9.520
   H    88.750  20.380  9.870
   H    87.890  20.690  8.320
   H    85.680  18.660  8.300
   H    85.360  19.130  6.660
   H    84.780  17.650  7.260
   H    87.820  16.610  5.140
   H    86.320  15.970  5.540
   H    86.400  17.540  4.700
   H    88.150  15.870  7.300
   H    86.500  15.710  7.970
   H    87.320  13.310  13.620
   H    88.730  12.850  13.170
   H    89.170  16.350  12.210
   H    90.460  15.160  12.520
   H    90.170  16.610  13.550
   H    85.240  17.130  14.730
   H    83.990  14.300  14.380
   H    84.360  15.310  13.000
   H    81.850  18.060  13.840
   H    82.230  17.280  12.450
   H    83.590  17.840  13.500
   H    81.620  14.070  13.880
   H    81.940  14.860  12.450
   H    80.630  15.520  13.550
   H    81.820  15.960  18.270
   H    83.420  16.220  18.970
   H    83.080  14.780  18.060
   H    82.530  18.190  17.490
   H    83.220  18.470  15.960
   H    84.360  18.130  17.310
   H    84.830  14.820  16.560
   H    85.390  16.360  17.000
   H    90.060  13.640  14.690
   H    90.310  15.070  15.290
   H    87.550  15.920  16.720
   H    88.120  15.220  18.180
   H    89.170  16.110  17.130
   H    91.560  12.460  19.080
   H    89.490  10.600  20.190
   H    89.500  12.220  20.800
   H    89.880  11.160  22.890
   H    91.320  10.020  23.180
   H    89.970  9.450  22.290
   H    91.720  12.880  22.210
   H    92.930  11.560  22.430
   H    92.870  12.550  20.940
   H    90.840  7.880  19.310
   H    91.350  8.090  17.670
   H    92.600  7.620  18.770
   H    94.160  9.310  18.930
   H    93.670  10.930  18.440
   H    93.560  9.590  17.360
   H    89.990  10.030  18.210
   H    91.400  10.740  17.290
   H    86.730  13.640  16.080
   H    87.850  12.320  15.790
   H    87.380  12.830  17.400
  