239
PTMA_CHAIN3_time12
 C    84.190  48.660  55.670
   C    85.260  49.570  56.250
   C    86.600  49.220  55.560
   C    85.240  49.340  57.790
   O    86.240  49.100  58.430
   O    84.000  49.580  58.330
   C    83.740  49.300  59.710
   C    83.720  50.540  60.490
   C    83.320  50.320  61.920
   C    84.470  49.780  62.840
   C    82.830  51.660  62.540
   N    82.180  49.340  61.980
   H    81.550  49.370  62.860
   C    81.980  48.220  61.070
   C    82.760  47.050  61.600
   C    80.540  47.920  61.210
   C    82.380  48.690  59.670
   C    84.780  51.010  55.930
   C    85.590  52.330  56.310
   C    85.610  52.500  57.840
   C    87.040  52.350  55.770
   O    88.030  52.220  56.470
   O    87.090  52.300  54.440
   C    88.300  52.580  53.710
   C    88.950  51.230  53.440
   C    90.130  51.360  52.490
   C    91.390  51.030  53.240
   C    89.950  50.320  51.390
   N    90.210  52.680  51.850
   H    91.190  52.880  51.410
   C    89.070  53.660  51.750
   C    89.680  54.950  52.290
   C    88.780  53.820  50.300
   C    87.860  53.160  52.450
   C    84.770  53.550  55.540
   C    84.980  55.120  55.880
   C    84.240  55.510  57.210
   C    84.270  55.830  54.670
   O    84.840  55.870  53.580
   O    83.120  56.490  55.000
   C    82.330  57.110  53.970
   C    81.500  58.190  54.650
   C    80.500  58.870  53.720
   C    81.240  60.000  52.980
   C    79.220  59.350  54.370
   N    80.150  57.960  52.620
   H    79.810  58.310  51.650
   C    80.170  56.450  52.780
   C    80.130  55.800  51.380
   C    78.810  56.160  53.450
   C    81.390  55.980  53.480
   C    86.530  55.470  56.010
   C    87.190  56.870  56.250
   C    86.700  57.850  55.140
   C    86.840  57.400  57.620
   O    86.750  58.610  57.770
   O    86.820  56.400  58.570
   C    86.870  56.700  59.970
   C    85.410  56.800  60.420
   C    85.350  57.150  61.910
   C    84.220  56.550  62.720
   C    85.160  58.740  61.940
   N    86.670  56.910  62.620
   H    86.830  57.290  63.630
   C    87.580  55.870  62.200
   C    88.990  56.330  62.570
   C    87.180  54.570  63.050
   C    87.490  55.540  60.740
   C    88.760  56.520  56.250
   C    89.860  57.570  56.570
   C    89.620  58.910  55.910
   C    90.100  57.830  58.080
   O    89.770  57.030  58.960
   O    90.680  59.060  58.320
   C    91.020  59.480  59.640
   C    92.550  59.720  59.640
   C    92.990  59.880  61.050
   C    93.350  58.590  61.760
   C    94.140  60.960  61.100
   N    91.910  60.440  61.900
   H    92.060  60.320  62.970
   C    90.750  61.240  61.330
   C    90.970  62.760  61.430
   C    89.460  60.940  62.140
   C    90.370  60.840  59.860
   C    91.110  57.040  55.790
   C    92.080  55.860  56.210
   C    93.000  55.470  54.990
   C    91.340  54.550  56.550
   O    90.370  54.170  55.830
   O    91.880  53.890  57.560
   C    91.200  52.750  58.060
   C    92.100  51.590  57.690
   C    91.640  50.130  58.210
   C    92.800  49.080  58.410
   C    90.770  49.470  57.160
   N    90.890  50.310  59.510
   O    90.840  49.260  60.120
   C    90.330  51.540  60.140
   C    90.610  51.620  61.670
   C    88.830  51.460  59.930
   C    90.960  52.830  59.590
   C    93.030  56.220  57.430
   H    84.580  47.650  55.780
   H    83.220  48.530  56.150
   H    84.090  48.780  54.590
   H    86.620  49.530  54.520
   H    86.730  48.140  55.600
   H    87.520  49.540  56.040
   H    84.460  48.550  60.030
   H    84.740  50.940  60.580
   H    83.020  51.270  60.090
   H    84.000  49.310  63.700
   H    85.120  50.560  63.240
   H    85.070  49.000  62.390
   H    83.610  52.400  62.660
   H    82.490  51.450  63.550
   H    82.120  52.230  61.940
   H    82.590  46.130  61.030
   H    83.810  47.270  61.780
   H    82.480  46.830  62.630
   H    80.160  47.720  60.210
   H    80.040  48.850  61.460
   H    80.300  47.150  61.940
   H    81.560  49.260  59.250
   H    82.410  47.870  58.950
   H    84.650  50.990  54.850
   H    83.770  51.170  56.300
   H    86.160  53.390  58.150
   H    86.160  51.690  58.330
   H    84.590  52.470  58.220
   H    88.890  53.240  54.340
   H    89.290  50.770  54.370
   H    88.210  50.540  53.050
   H    91.400  51.610  54.160
   H    91.450  49.980  53.540
   H    92.270  51.150  52.610
   H    90.780  50.240  50.680
   H    89.100  50.670  50.810
   H    89.810  49.300  51.740
   H    89.050  55.780  51.960
   H    89.610  54.950  53.380
   H    90.730  55.140  52.070
   H    87.820  54.290  50.100
   H    89.620  54.370  49.860
   H    88.770  52.840  49.830
   H    87.330  52.530  51.740
   H    87.160  53.960  52.710
   H    83.720  53.280  55.650
   H    84.930  53.580  54.460
   H    83.230  55.090  57.140
   H    84.720  55.050  58.070
   H    84.140  56.550  57.540
   H    82.890  57.620  53.190
   H    82.210  58.960  54.940
   H    80.990  57.750  55.500
   H    80.530  60.430  52.270
   H    82.110  59.610  52.440
   H    81.640  60.790  53.620
   H    78.900  58.480  54.950
   H    79.520  60.260  54.890
   H    78.470  59.700  53.660
   H    80.920  55.950  50.650
   H    79.340  56.160  50.720
   H    80.150  54.720  51.330
   H    78.620  55.100  53.640
   H    78.750  56.680  54.410
   H    77.930  56.520  52.910
   H    81.950  55.200  52.950
   H    81.010  55.460  54.360
   H    87.030  55.020  55.160
   H    86.860  54.790  56.800
   H    87.010  58.890  55.110
   H    85.620  57.880  55.000
   H    87.080  57.640  54.140
   H    87.460  57.610  60.040
   H    84.890  55.880  60.140
   H    84.930  57.620  59.890
   H    83.870  57.150  63.560
   H    84.420  55.600  63.200
   H    83.400  56.430  62.010
   H    84.910  59.060  62.950
   H    85.970  59.310  61.480
   H    84.200  58.940  61.460
   H    89.730  55.610  62.240
   H    89.290  57.270  62.110
   H    89.000  56.570  63.630
   H    86.400  54.030  62.520
   H    88.070  53.940  63.130
   H    86.810  54.770  64.060
   H    86.940  54.620  60.520
   H    88.420  55.170  60.300
   H    88.790  55.710  56.980
   H    88.830  56.000  55.300
   H    90.520  59.530  55.860
   H    88.870  59.540  56.400
   H    89.340  58.780  54.860
   H    90.620  58.770  60.360
   H    92.770  60.590  59.020
   H    93.140  58.930  59.180
   H    93.380  58.760  62.840
   H    94.370  58.290  61.490
   H    92.670  57.760  61.580
   H    93.800  61.870  60.590
   H    95.020  60.580  60.590
   H    94.360  61.310  62.110
   H    91.180  63.090  62.450
   H    90.150  63.410  61.120
   H    91.820  63.120  60.840
   H    89.640  60.780  63.210
   H    89.000  60.000  61.830
   H    88.750  61.760  62.190
   H    90.710  61.570  59.130
   H    89.290  60.740  59.760
   H    90.810  56.700  54.800
   H    91.810  57.850  55.610
   H    93.850  54.830  55.220
   H    92.350  55.070  54.220
   H    93.410  56.350  54.470
   H    90.230  52.570  57.600
   H    93.080  51.870  58.080
   H    92.380  51.600  56.640
   H    92.380  48.090  58.610
   H    93.400  49.360  59.280
   H    93.400  48.950  57.510
   H    90.000  50.100  56.710
   H    91.370  49.230  56.290
   H    90.400  48.470  57.400
   H    90.050  52.410  62.170
   H    90.200  50.700  62.100
   H    91.670  51.630  61.950
   H    88.250  52.120  60.570
   H    88.440  50.440  59.960
   H    88.680  51.780  58.900
   H    91.820  53.060  60.220
   H    90.280  53.650  59.820
   H    93.780  55.450  57.620
   H    93.540  57.160  57.230
   H    92.410  56.180  58.330
  