239
PTMA_CHAIN2_time18
 C    -13.870  10.990  61.040
   C    -13.570  12.360  61.610
   C    -14.880  13.180  61.510
   C    -12.500  13.210  60.810
   O    -12.440  14.430  60.810
   O    -11.780  12.420  60.010
   C    -10.710  12.910  59.190
   C    -9.440  12.040  59.340
   C    -8.300  12.550  58.440
   C    -7.460  13.680  58.950
   C    -7.260  11.380  58.330
   N    -8.840  12.870  57.110
   H    -8.170  12.680  56.270
   C    -10.150  13.490  56.820
   C    -10.040  15.000  56.970
   C    -10.560  13.170  55.420
   C    -11.140  12.890  57.780
   C    -13.200  12.160  63.140
   C    -11.660  11.780  63.580
   C    -11.220  10.540  62.750
   C    -10.590  12.890  63.410
   O    -9.430  12.630  63.180
   O    -11.140  14.120  63.530
   C    -10.370  15.360  63.330
   C    -11.350  16.530  63.280
   C    -10.660  17.890  63.340
   C    -10.910  18.610  62.010
   C    -11.290  18.780  64.480
   N    -9.150  17.740  63.500
   H    -8.590  18.560  63.060
   C    -8.480  16.720  64.280
   C    -7.240  16.250  63.500
   C    -7.910  17.340  65.590
   C    -9.450  15.600  64.590
   C    -11.830  11.200  65.010
   C    -11.810  12.010  66.380
   C    -12.340  11.080  67.510
   C    -12.750  13.260  66.290
   O    -12.330  14.430  66.360
   O    -14.010  12.940  66.280
   C    -14.970  14.000  66.440
   C    -16.060  13.480  67.300
   C    -17.360  14.240  67.230
   C    -17.730  14.850  68.530
   C    -18.480  13.190  66.700
   N    -17.280  15.380  66.220
   H    -17.890  16.260  66.380
   C    -16.550  15.200  64.950
   C    -15.880  16.540  64.600
   C    -17.610  14.850  63.880
   C    -15.500  14.100  65.030
   C    -10.330  12.470  66.670
   C    -9.770  13.030  68.080
   C    -10.710  14.060  68.710
   C    -9.650  11.740  69.040
   O    -9.980  11.820  70.210
   O    -9.350  10.570  68.410
   C    -9.040  9.430  69.260
   C    -10.370  8.710  69.560
   C    -10.120  7.520  70.530
   C    -10.940  6.320  70.100
   C    -10.560  8.010  71.910
   N    -8.640  7.260  70.660
   H    -8.270  6.770  71.560
   C    -7.690  7.400  69.530
   C    -6.360  7.880  70.190
   C    -7.500  6.020  68.870
   C    -8.200  8.460  68.520
   C    -8.420  13.800  67.830
   C    -7.060  13.500  68.520
   C    -7.080  13.490  70.050
   C    -6.440  12.130  67.980
   O    -6.030  11.290  68.800
   O    -6.490  12.030  66.570
   C    -6.070  10.890  65.850
   C    -6.980  10.690  64.670
   C    -6.520  9.520  63.710
   C    -7.150  8.160  64.110
   C    -6.790  9.790  62.250
   N    -5.030  9.230  63.920
   H    -4.680  8.230  63.660
   C    -4.040  10.160  64.540
   C    -3.060  10.790  63.440
   C    -3.130  9.210  65.410
   C    -4.660  11.310  65.340
   C    -6.120  14.660  68.030
   C    -4.630  14.820  68.550
   C    -3.780  13.570  68.390
   C    -4.510  15.420  69.970
   O    -5.270  16.370  70.320
   O    -3.620  14.800  70.790
   C    -3.170  15.420  71.980
   C    -3.430  14.500  73.130
   C    -2.930  14.850  74.580
   C    -2.560  13.540  75.380
   C    -3.980  15.860  75.200
   N    -1.620  15.580  74.450
   O    -1.030  15.810  75.520
   C    -1.070  16.120  73.240
   C    0.420  15.660  73.150
   C    -1.180  17.610  73.390
   C    -1.660  15.550  71.870
   C    -4.040  15.830  67.620
   H    -14.800  10.510  61.340
   H    -14.120  11.100  59.990
   H    -13.090  10.230  61.090
   H    -15.270  13.210  60.500
   H    -14.690  14.160  61.950
   H    -15.690  12.770  62.130
   H    -10.450  13.910  59.530
   H    -9.140  12.130  60.390
   H    -9.830  11.030  59.220
   H    -6.840  14.010  58.120
   H    -6.940  13.310  59.840
   H    -8.110  14.510  59.230
   H    -7.190  10.730  59.200
   H    -6.240  11.700  58.110
   H    -7.570  10.720  57.520
   H    -9.110  15.300  56.500
   H    -10.770  15.620  56.460
   H    -9.860  15.330  57.990
   H    -9.920  13.650  54.680
   H    -11.600  13.420  55.210
   H    -10.550  12.090  55.280
   H    -11.160  11.880  57.370
   H    -12.120  13.360  57.690
   H    -13.550  13.000  63.750
   H    -13.790  11.320  63.520
   H    -10.860  10.700  61.730
   H    -12.010  9.790  62.770
   H    -10.380  10.010  63.190
   H    -9.850  15.350  62.380
   H    -12.030  16.320  62.450
   H    -11.920  16.460  64.210
   H    -10.560  18.000  61.170
   H    -11.990  18.600  61.870
   H    -10.600  19.640  61.850
   H    -10.940  18.430  65.460
   H    -12.370  18.760  64.590
   H    -10.930  19.810  64.380
   H    -6.620  15.470  63.930
   H    -7.430  15.870  62.490
   H    -6.500  17.050  63.450
   H    -8.720  17.790  66.160
   H    -7.340  16.590  66.140
   H    -7.210  18.170  65.460
   H    -10.030  15.730  65.500
   H    -8.930  14.640  64.610
   H    -11.090  10.450  65.280
   H    -12.710  10.560  64.940
   H    -11.870  10.100  67.550
   H    -12.270  11.610  68.460
   H    -13.380  10.830  67.330
   H    -14.490  14.900  66.820
   H    -15.740  13.510  68.350
   H    -16.230  12.420  67.080
   H    -18.230  14.240  69.280
   H    -18.490  15.600  68.320
   H    -16.910  15.480  68.880
   H    -18.630  12.410  67.440
   H    -19.450  13.680  66.620
   H    -18.070  12.760  65.790
   H    -16.660  17.290  64.730
   H    -15.340  16.580  63.660
   H    -15.160  16.710  65.390
   H    -17.980  13.830  64.020
   H    -18.450  15.540  63.910
   H    -17.170  14.860  62.880
   H    -14.650  14.370  64.390
   H    -15.890  13.150  64.660
   H    -9.990  13.210  65.940
   H    -9.700  11.650  66.330
   H    -10.300  14.250  69.700
   H    -11.710  13.650  68.850
   H    -10.840  15.000  68.170
   H    -8.370  9.690  70.080
   H    -10.780  8.290  68.640
   H    -11.170  9.360  69.910
   H    -12.010  6.550  70.140
   H    -10.740  5.590  70.880
   H    -10.680  5.840  69.160
   H    -11.640  8.120  72.010
   H    -10.090  7.300  72.580
   H    -10.220  9.000  72.210
   H    -6.000  7.220  70.980
   H    -5.650  7.920  69.360
   H    -6.400  8.900  70.570
   H    -8.480  5.580  68.680
   H    -6.850  6.070  67.990
   H    -7.090  5.370  69.640
   H    -8.740  8.030  67.680
   H    -7.320  9.020  68.200
   H    -8.250  13.910  66.760
   H    -8.570  14.830  68.160
   H    -7.600  14.340  70.480
   H    -6.050  13.370  70.400
   H    -7.620  12.680  70.540
   H    -6.020  9.960  66.410
   H    -6.970  11.600  64.060
   H    -7.990  10.490  65.030
   H    -8.220  8.240  63.890
   H    -6.970  7.990  65.170
   H    -6.860  7.300  63.510
   H    -6.670  8.890  61.650
   H    -6.150  10.520  61.740
   H    -7.810  10.030  61.950
   H    -3.320  11.710  62.920
   H    -2.870  10.040  62.670
   H    -2.110  11.110  63.870
   H    -2.480  9.870  65.980
   H    -2.540  8.450  64.910
   H    -3.690  8.720  66.220
   H    -4.690  12.240  64.780
   H    -3.930  11.670  66.070
   H    -6.190  14.660  66.950
   H    -6.560  15.600  68.380
   H    -2.780  13.660  68.820
   H    -4.210  12.770  69.000
   H    -3.610  13.150  67.400
   H    -3.650  16.390  72.110
   H    -3.010  13.510  72.920
   H    -4.500  14.310  73.140
   H    -2.390  13.910  76.390
   H    -1.670  13.050  75.000
   H    -3.410  12.860  75.410
   H    -4.980  15.540  74.910
   H    -3.970  16.000  76.280
   H    -3.710  16.820  74.750
   H    1.090  16.090  73.890
   H    0.550  14.630  73.470
   H    0.840  15.780  72.160
   H    -0.890  18.030  74.350
   H    -2.220  17.900  73.270
   H    -0.570  18.160  72.660
   H    -1.190  14.590  71.660
   H    -1.530  16.180  70.990
   H    -2.990  16.080  67.800
   H    -4.020  15.500  66.580
   H    -4.630  16.740  67.610
  