239
PTMA_CHAIN5_time5
 C    89.850  68.050  71.310
   C    91.170  67.910  70.540
   C    91.010  68.910  69.340
   C    91.190  66.470  69.930
   O    90.540  65.570  70.410
   O    91.710  66.390  68.700
   C    92.100  65.120  68.190
   C    90.920  64.310  67.590
   C    91.290  62.870  67.190
   C    90.940  61.940  68.370
   C    90.490  62.450  65.900
   N    92.790  62.780  66.940
   O    93.370  61.710  67.210
   C    93.640  64.030  66.520
   C    95.140  63.740  66.890
   C    93.500  64.090  64.970
   C    93.140  65.400  67.140
   C    92.500  67.900  71.460
   C    93.010  69.190  72.200
   C    93.160  70.340  71.070
   C    91.950  69.610  73.290
   O    91.720  70.790  73.550
   O    91.310  68.530  73.810
   C    90.380  68.620  74.900
   C    89.950  67.250  75.360
   C    88.880  67.200  76.460
   C    87.570  66.600  75.870
   C    89.480  66.200  77.540
   N    88.680  68.490  77.220
   O    87.740  68.630  78.010
   C    89.630  69.670  77.030
   C    88.880  70.920  76.570
   C    90.210  70.040  78.400
   C    90.850  69.390  76.130
   C    94.440  68.960  72.700
   C    95.210  69.890  73.800
   C    96.680  69.460  73.640
   C    94.780  69.410  75.250
   O    93.980  68.460  75.420
   O    95.650  69.870  76.230
   C    95.730  69.310  77.560
   C    95.360  70.460  78.480
   C    95.420  70.080  79.980
   C    93.990  69.700  80.370
   C    95.870  71.340  80.770
   N    96.330  69.040  80.420
   O    96.370  68.840  81.620
   C    97.150  68.230  79.440
   C    96.630  66.730  79.490
   C    98.640  68.480  79.940
   C    97.090  68.810  77.990
   C    95.090  71.400  73.520
   C    95.230  72.660  74.440
   C    94.000  72.550  75.460
   C    96.530  72.780  75.220
   O    96.560  73.170  76.360
   O    97.660  72.620  74.410
   C    99.000  72.760  74.890
   C    99.490  74.060  75.500
   C    101.000  74.050  75.950
   C    101.090  75.010  77.200
   C    101.930  74.750  74.910
   N    101.500  72.640  76.300
   O    102.680  72.320  76.140
   C    100.510  71.560  76.650
   C    101.150  70.140  76.560
   C    100.060  71.740  78.140
   C    99.280  71.550  75.770
   C    94.790  73.980  73.590
   C    95.730  75.010  72.910
   C    96.160  75.940  74.040
   C    96.940  74.350  72.230
   O    98.070  74.730  72.560
   O    96.630  73.610  71.200
   C    97.620  72.700  70.640
   C    96.830  71.520  70.030
   C    97.670  70.710  69.060
   C    97.520  69.270  69.480
   C    97.240  70.710  67.590
   N    99.150  71.040  69.130
   O    99.990  70.140  69.480
   C    99.560  72.520  69.190
   C    100.040  72.970  67.820
   C    100.730  72.690  70.240
   C    98.440  73.400  69.640
   C    95.090  75.860  71.770
   C    93.630  76.340  71.830
   C    93.310  77.160  73.080
   C    92.620  75.200  71.560
   O    92.910  74.300  70.770
   O    91.490  75.200  72.390
   C    90.370  74.450  71.980
   C    89.590  74.020  73.250
   C    88.280  73.220  72.940
   C    87.410  73.330  74.220
   C    88.560  71.710  72.710
   N    87.540  73.800  71.760
   O    86.480  73.250  71.440
   C    88.190  74.650  70.680
   C    87.270  75.840  70.340
   C    88.400  73.820  69.360
   C    89.520  75.370  71.120
   C    93.430  77.200  70.590
   H    89.750  69.050  71.740
   H    88.930  67.890  70.750
   H    89.750  67.360  72.140
   H    90.750  69.950  69.520
   H    90.200  68.580  68.690
   H    91.880  68.840  68.690
   H    92.550  64.530  68.990
   H    90.040  64.430  68.210
   H    90.530  64.780  66.690
   H    89.890  61.950  68.670
   H    91.620  62.100  69.200
   H    91.180  60.940  68.020
   H    89.420  62.270  66.060
   H    90.880  61.520  65.490
   H    90.590  63.140  65.070
   H    95.480  62.920  66.250
   H    95.780  64.560  66.550
   H    95.230  63.560  67.960
   H    92.490  64.360  64.650
   H    93.780  63.070  64.740
   H    94.220  64.780  64.540
   H    92.620  66.030  66.410
   H    93.880  66.040  67.620
   H    92.370  67.080  72.160
   H    93.300  67.590  70.790
   H    92.220  70.890  70.970
   H    93.380  69.970  70.070
   H    93.990  71.010  71.270
   H    89.600  69.170  74.370
   H    89.590  66.640  74.540
   H    90.820  66.710  75.730
   H    87.550  65.550  75.590
   H    86.750  66.590  76.580
   H    87.140  67.210  75.070
   H    90.530  66.390  77.750
   H    89.310  65.170  77.230
   H    89.070  66.200  78.550
   H    89.540  71.760  76.330
   H    88.240  70.720  75.700
   H    88.180  71.320  77.300
   H    89.370  70.360  79.030
   H    90.780  69.250  78.880
   H    90.860  70.920  78.380
   H    91.540  68.740  76.670
   H    91.290  70.350  75.880
   H    95.020  68.820  71.790
   H    94.480  67.940  73.090
   H    97.320  70.150  74.200
   H    96.840  68.420  73.920
   H    97.000  69.520  72.600
   H    94.980  68.530  77.710
   H    94.370  70.850  78.230
   H    96.140  71.210  78.360
   H    93.520  68.930  79.760
   H    93.330  70.570  80.360
   H    93.940  69.360  81.400
   H    95.730  72.270  80.220
   H    95.250  71.530  81.650
   H    96.910  71.370  81.090
   H    97.110  66.140  80.270
   H    96.770  66.220  78.530
   H    95.550  66.820  79.580
   H    99.360  68.060  79.240
   H    98.790  69.560  79.980
   H    98.780  68.120  80.960
   H    97.420  68.030  77.300
   H    97.740  69.670  77.820
   H    94.070  71.580  73.200
   H    95.600  71.660  72.600
   H    94.050  73.410  76.130
   H    94.130  71.780  76.220
   H    93.040  72.580  74.950
   H    99.580  72.600  73.980
   H    98.850  74.180  76.370
   H    99.250  74.880  74.810
   H    100.690  75.980  76.910
   H    102.120  75.060  77.550
   H    100.540  74.630  78.060
   H    102.980  74.530  75.110
   H    101.790  74.290  73.930
   H    101.880  75.830  74.910
   H    100.500  69.320  76.850
   H    101.540  69.850  75.580
   H    102.020  70.130  77.210
   H    99.290  72.490  78.320
   H    99.590  70.810  78.460
   H    100.900  71.980  78.800
   H    98.390  71.220  76.310
   H    99.270  70.730  75.060
   H    94.160  73.560  72.810
   H    94.150  74.600  74.210
   H    95.400  76.270  74.750
   H    96.570  76.860  73.610
   H    97.040  75.610  74.580
   H    98.240  72.320  71.450
   H    95.970  71.880  69.440
   H    96.420  70.840  70.770
   H    96.510  68.880  69.280
   H    97.860  69.160  70.500
   H    98.140  68.630  68.850
   H    96.190  70.400  67.550
   H    97.880  70.080  66.980
   H    97.240  71.710  67.150
   H    100.070  74.050  67.700
   H    99.480  72.440  67.060
   H    101.060  72.620  67.660
   H    100.450  72.460  71.270
   H    101.190  73.670  70.090
   H    101.540  72.040  69.940
   H    97.730  73.670  68.850
   H    98.840  74.350  70.010
   H    95.760  76.720  71.670
   H    95.070  75.430  70.770
   H    94.000  77.990  73.280
   H    92.330  77.600  72.920
   H    93.280  76.540  73.980
   H    90.590  73.590  71.350
   H    89.230  74.900  73.780
   H    90.240  73.380  73.860
   H    86.950  74.310  74.340
   H    88.050  73.230  75.100
   H    86.520  72.700  74.190
   H    89.140  71.400  73.580
   H    87.740  71.000  72.620
   H    89.230  71.600  71.860
   H    86.240  75.560  70.150
   H    87.280  76.640  71.080
   H    87.680  76.290  69.440
   H    89.310  73.240  69.510
   H    88.510  74.470  68.490
   H    87.550  73.150  69.210
   H    89.250  76.320  71.580
   H    90.050  75.540  70.190
   H    93.020  76.640  69.740
   H    92.790  78.070  70.750
   H    94.390  77.500  70.170
  