239
PTMA_CHAIN6_time50
 C    80.470  44.320  37.870
   C    81.750  43.780  38.570
   C    82.110  42.460  37.980
   C    81.400  43.620  40.090
   O    80.610  42.730  40.460
   O    81.810  44.600  40.910
   C    81.600  44.630  42.330
   C    82.400  43.650  43.050
   C    82.120  43.730  44.530
   C    80.700  43.330  45.010
   C    83.100  42.800  45.280
   N    82.230  45.100  45.020
   H    82.390  45.270  46.080
   C    81.850  46.300  44.180
   C    80.420  46.760  44.560
   C    82.910  47.410  44.470
   C    81.950  46.030  42.700
   C    82.960  44.800  38.270
   C    84.460  44.700  38.830
   C    84.730  43.400  39.660
   C    85.380  44.510  37.610
   O    86.360  43.790  37.680
   O    84.990  45.170  36.510
   C    85.630  45.140  35.220
   C    85.050  44.120  34.350
   C    85.740  43.990  33.040
   C    87.110  43.320  33.230
   C    84.880  43.070  32.120
   N    85.890  45.290  32.350
   O    86.020  45.340  31.120
   C    86.180  46.550  33.130
   C    87.670  46.860  33.190
   C    85.470  47.680  32.350
   C    85.640  46.540  34.570
   C    84.810  46.000  39.760
   C    86.150  46.640  39.970
   C    85.850  47.520  41.170
   C    86.470  47.560  38.700
   O    86.970  47.160  37.650
   O    86.010  48.830  38.790
   C    86.250  49.830  37.770
   C    86.950  50.940  38.490
   C    87.290  52.100  37.630
   C    88.670  51.950  36.900
   C    87.440  53.480  38.340
   N    86.330  52.350  36.540
   H    86.650  53.070  35.790
   C    85.030  51.550  36.400
   C    84.960  51.150  34.920
   C    83.850  52.460  36.750
   C    84.900  50.320  37.320
   C    87.320  45.690  40.310
   C    88.780  46.170  40.760
   C    89.180  47.520  40.060
   C    88.730  46.560  42.320
   O    89.550  47.340  42.780
   O    87.700  45.990  43.100
   C    87.600  46.360  44.490
   C    87.050  47.750  44.520
   C    86.950  48.290  45.960
   C    85.960  49.490  45.970
   C    88.340  48.900  46.430
   N    86.570  47.220  46.990
   O    86.160  47.590  48.080
   C    86.650  45.730  46.770
   C    87.890  45.150  47.370
   C    85.400  45.030  47.290
   C    86.620  45.490  45.270
   C    89.960  45.150  40.410
   C    90.050  43.590  40.790
   C    91.540  43.130  40.560
   C    89.860  43.370  42.330
   O    90.520  44.100  43.100
   O    88.950  42.500  42.720
   C    88.810  42.140  44.060
   C    87.460  41.510  44.350
   C    87.500  40.640  45.610
   C    86.300  40.990  46.610
   C    87.400  39.120  45.240
   N    88.690  40.780  46.430
   H    88.580  40.720  47.510
   C    90.060  41.000  45.920
   C    90.940  39.760  46.080
   C    90.530  42.210  46.650
   C    89.940  41.290  44.430
   C    89.180  42.750  39.890
   C    89.340  41.190  39.560
   C    90.590  40.820  38.590
   C    88.000  40.910  38.830
   O    86.950  40.750  39.480
   O    88.220  40.560  37.500
   C    87.280  39.650  36.880
   C    86.060  40.380  36.450
   C    84.990  39.460  35.900
   C    83.990  40.200  35.010
   C    84.160  38.940  37.150
   N    85.600  38.230  35.310
   O    84.900  37.260  35.110
   C    87.000  38.190  34.680
   C    86.790  38.640  33.190
   C    87.510  36.730  34.610
   C    87.960  38.990  35.630
   C    89.340  40.300  40.760
   H    80.590  44.570  36.820
   H    79.640  43.630  38.040
   H    80.130  45.200  38.420
   H    82.340  42.570  36.920
   H    81.340  41.710  38.160
   H    82.970  41.970  38.440
   H    80.540  44.380  42.470
   H    82.200  42.600  42.820
   H    83.460  43.700  42.820
   H    79.920  43.770  44.380
   H    80.370  43.620  46.010
   H    80.530  42.260  44.920
   H    84.120  43.090  45.040
   H    83.030  41.770  44.910
   H    83.110  42.720  46.370
   H    80.290  47.840  44.440
   H    79.740  46.290  43.860
   H    80.300  46.440  45.600
   H    83.910  47.190  44.110
   H    83.040  47.620  45.530
   H    82.600  48.330  43.960
   H    82.980  46.280  42.450
   H    81.380  46.730  42.090
   H    82.930  44.850  37.180
   H    82.620  45.730  38.720
   H    84.850  42.470  39.110
   H    83.900  43.310  40.360
   H    85.630  43.450  40.290
   H    86.600  44.660  35.340
   H    84.980  43.180  34.880
   H    84.010  44.420  34.230
   H    87.490  43.020  32.260
   H    87.860  43.880  33.780
   H    86.940  42.400  33.800
   H    85.250  43.040  31.090
   H    83.860  43.460  31.990
   H    84.950  42.030  32.420
   H    88.110  46.650  32.220
   H    87.770  47.910  33.450
   H    88.150  46.200  33.910
   H    85.990  47.740  31.390
   H    84.410  47.480  32.280
   H    85.660  48.620  32.860
   H    84.600  46.890  34.620
   H    86.160  47.290  35.160
   H    84.310  45.740  40.690
   H    84.150  46.790  39.420
   H    85.110  48.280  40.920
   H    85.510  46.980  42.050
   H    86.660  48.200  41.410
   H    86.840  49.460  36.940
   H    87.810  50.540  39.030
   H    86.250  51.420  39.170
   H    89.420  51.430  37.490
   H    89.150  52.860  36.540
   H    88.500  51.250  36.080
   H    87.910  53.470  39.320
   H    88.010  54.170  37.710
   H    86.410  53.820  38.460
   H    85.370  51.880  34.220
   H    83.940  50.950  34.590
   H    85.520  50.250  34.650
   H    82.930  51.880  36.840
   H    83.920  52.970  37.710
   H    83.660  53.190  35.960
   H    84.250  49.510  36.990
   H    84.480  50.670  38.260
   H    87.510  45.170  39.370
   H    87.040  44.950  41.060
   H    89.180  47.530  38.970
   H    90.220  47.760  40.270
   H    88.630  48.410  40.360
   H    88.620  46.300  44.880
   H    86.030  47.700  44.130
   H    87.660  48.460  43.960
   H    86.400  50.310  45.410
   H    85.610  49.840  46.950
   H    85.000  49.180  45.540
   H    88.220  49.370  47.410
   H    89.100  48.120  46.540
   H    88.780  49.530  45.650
   H    87.900  44.100  47.120
   H    88.820  45.660  47.150
   H    87.750  45.210  48.450
   H    85.340  45.300  48.340
   H    84.410  45.220  46.870
   H    85.510  43.960  47.100
   H    85.660  45.510  44.750
   H    86.880  44.440  45.090
   H    90.160  45.300  39.350
   H    90.830  45.510  40.950
   H    91.640  42.140  41.000
   H    92.230  43.810  41.070
   H    91.800  43.000  39.510
   H    88.920  43.040  44.660
   H    87.240  40.790  43.560
   H    86.630  42.200  44.240
   H    86.330  40.330  47.480
   H    85.310  40.910  46.180
   H    86.460  42.020  46.900
   H    88.060  38.850  44.420
   H    86.400  38.850  44.910
   H    87.680  38.530  46.120
   H    92.010  39.900  45.950
   H    90.430  38.980  45.520
   H    90.920  39.580  47.150
   H    91.460  42.600  46.250
   H    90.770  41.940  47.680
   H    89.800  43.020  46.590
   H    89.940  40.350  43.870
   H    90.830  41.880  44.210
   H    88.200  42.880  40.350
   H    89.020  43.210  38.920
   H    90.480  39.890  38.040
   H    90.790  41.520  37.780
   H    91.440  40.590  39.230
   H    87.190  38.850  37.610
   H    86.250  41.200  35.760
   H    85.670  40.840  37.360
   H    83.010  39.720  34.900
   H    84.450  40.440  34.050
   H    83.800  41.150  35.520
   H    83.450  38.190  36.800
   H    84.700  38.480  37.980
   H    83.650  39.760  37.650
   H    87.740  38.550  32.660
   H    86.040  37.990  32.720
   H    86.410  39.660  33.160
   H    86.920  36.050  34.010
   H    87.510  36.370  35.640
   H    88.500  36.700  34.150
   H    88.220  39.890  35.070
   H    88.810  38.380  35.920
   H    88.400  40.410  41.310
   H    89.390  39.220  40.580
   H    90.200  40.500  41.400
  