239
PTMA_CHAIN2_time12
 C    -20.140  18.400  66.030
   C    -19.110  19.530  66.110
   C    -19.860  20.850  66.310
   C    -18.260  19.660  64.760
   O    -17.700  20.660  64.460
   O    -18.150  18.540  64.090
   C    -17.760  18.540  62.750
   C    -16.410  17.980  62.640
   C    -15.900  17.970  61.220
   C    -15.490  19.390  60.920
   C    -14.720  17.060  60.970
   N    -16.950  17.670  60.230
   H    -16.630  17.470  59.210
   C    -18.360  17.580  60.540
   C    -19.050  18.660  59.680
   C    -18.790  16.150  60.080
   C    -18.700  17.630  62.040
   C    -18.210  19.390  67.420
   C    -17.030  18.380  67.520
   C    -17.410  17.000  66.900
   C    -15.810  18.830  66.630
   O    -15.180  18.090  65.890
   O    -15.600  20.170  66.740
   C    -14.860  20.780  65.750
   C    -15.210  22.190  65.730
   C    -14.550  22.890  64.560
   C    -15.040  22.410  63.180
   C    -14.690  24.400  64.770
   N    -13.110  22.640  64.530
   H    -12.510  23.260  63.870
   C    -12.530  21.360  65.020
   C    -12.270  20.360  63.880
   C    -11.250  21.700  65.630
   C    -13.400  20.760  66.110
   C    -16.650  17.990  68.990
   C    -16.080  19.000  70.150
   C    -16.310  18.150  71.410
   C    -16.980  20.280  70.150
   O    -16.520  21.320  69.700
   O    -18.180  20.170  70.580
   C    -18.810  21.340  71.160
   C    -18.410  21.590  72.600
   C    -18.980  22.840  73.270
   C    -18.060  24.030  73.080
   C    -19.290  22.650  74.770
   N    -20.220  23.230  72.570
   H    -20.500  24.280  72.470
   C    -21.110  22.360  71.760
   C    -21.710  23.260  70.700
   C    -22.100  21.800  72.720
   C    -20.350  21.160  71.130
   C    -14.540  19.290  69.930
   C    -13.600  19.970  71.000
   C    -14.200  21.300  71.620
   C    -13.310  19.000  72.230
   O    -13.360  19.480  73.350
   O    -13.140  17.730  71.930
   C    -12.890  16.740  72.970
   C    -14.150  16.450  73.760
   C    -13.920  15.410  74.780
   C    -15.270  14.990  75.320
   C    -13.200  16.000  76.010
   N    -13.210  14.190  74.140
   H    -13.330  13.210  74.590
   C    -12.140  14.260  73.110
   C    -10.710  14.520  73.740
   C    -12.250  12.930  72.350
   C    -12.520  15.420  72.250
   C    -12.250  20.510  70.240
   C    -10.840  19.820  70.380
   C    -10.240  20.090  71.750
   C    -10.870  18.270  69.940
   O    -10.290  17.400  70.610
   O    -11.510  18.080  68.800
   C    -11.380  16.770  68.110
   C    -12.720  16.010  68.460
   C    -12.770  14.620  67.710
   C    -12.290  13.510  68.690
   C    -14.210  14.230  67.360
   N    -11.930  14.650  66.500
   H    -11.700  13.660  66.090
   C    -11.330  15.840  65.900
   C    -12.070  15.980  64.560
   C    -9.810  15.550  65.570
   C    -11.480  17.100  66.730
   C    -10.000  20.470  69.240
   C    -8.520  20.150  68.850
   C    -8.430  19.110  67.760
   C    -7.550  19.880  70.050
   O    -7.140  20.890  70.650
   O    -6.990  18.720  70.090
   C    -6.150  18.360  71.140
   C    -6.750  17.150  71.900
   C    -5.910  16.670  73.100
   C    -6.030  15.100  73.240
   C    -6.410  17.380  74.360
   N    -4.460  17.020  72.990
   O    -3.760  16.810  73.990
   C    -3.860  17.700  71.790
   C    -2.640  16.810  71.400
   C    -3.220  19.020  72.160
   C    -4.830  17.810  70.570
   C    -7.970  21.410  68.140
   H    -20.810  18.590  65.190
   H    -19.660  17.430  65.890
   H    -20.710  18.290  66.950
   H    -20.650  21.140  65.620
   H    -19.150  21.660  66.470
   H    -20.340  20.790  67.290
   H    -17.900  19.520  62.310
   H    -15.660  18.410  63.300
   H    -16.390  16.920  62.910
   H    -14.940  19.400  59.980
   H    -14.860  19.850  61.680
   H    -16.330  20.080  60.790
   H    -14.350  17.120  59.940
   H    -15.070  16.060  61.190
   H    -13.920  17.210  61.700
   H    -18.870  18.550  58.610
   H    -20.130  18.560  59.760
   H    -19.000  19.670  60.090
   H    -19.860  15.960  60.110
   H    -18.270  15.420  60.710
   H    -18.410  15.890  59.090
   H    -18.630  16.640  62.480
   H    -19.740  17.940  62.190
   H    -17.710  20.310  67.730
   H    -18.880  19.090  68.240
   H    -18.380  16.760  67.340
   H    -16.590  16.360  67.220
   H    -17.470  17.030  65.810
   H    -15.040  20.230  64.820
   H    -16.280  22.320  65.560
   H    -15.080  22.760  66.650
   H    -15.950  22.960  62.950
   H    -14.420  22.580  62.300
   H    -15.360  21.370  63.210
   H    -14.220  24.660  65.720
   H    -15.700  24.820  64.790
   H    -14.180  24.900  63.950
   H    -11.600  20.780  63.140
   H    -11.800  19.480  64.330
   H    -13.190  19.990  63.410
   H    -10.740  20.800  65.970
   H    -10.570  22.060  64.870
   H    -11.340  22.470  66.400
   H    -13.260  21.120  67.130
   H    -12.990  19.760  66.250
   H    -16.030  17.100  68.950
   H    -17.600  17.630  69.390
   H    -15.640  17.290  71.410
   H    -16.070  18.670  72.340
   H    -17.360  17.890  71.540
   H    -18.540  22.220  70.580
   H    -17.330  21.640  72.650
   H    -18.820  20.740  73.140
   H    -18.050  24.290  72.020
   H    -17.060  23.780  73.430
   H    -18.330  24.950  73.600
   H    -19.810  23.510  75.200
   H    -19.790  21.700  74.980
   H    -18.330  22.570  75.270
   H    -21.000  23.410  69.890
   H    -22.040  24.210  71.120
   H    -22.600  22.840  70.230
   H    -23.010  21.400  72.260
   H    -21.660  21.140  73.460
   H    -22.500  22.610  73.330
   H    -20.410  21.130  70.040
   H    -20.750  20.230  71.530
   H    -14.430  19.880  69.020
   H    -14.030  18.360  69.670
   H    -13.500  21.660  72.380
   H    -15.110  21.020  72.150
   H    -14.240  22.160  70.950
   H    -11.990  17.040  73.510
   H    -14.940  16.080  73.090
   H    -14.520  17.350  74.250
   H    -15.240  14.360  76.210
   H    -15.840  14.330  74.660
   H    -15.760  15.920  75.610
   H    -12.770  15.250  76.670
   H    -12.340  16.600  75.730
   H    -13.770  16.630  76.690
   H    -9.980  14.580  72.930
   H    -10.720  15.380  74.410
   H    -10.430  13.610  74.270
   H    -11.650  12.840  71.450
   H    -12.060  11.980  72.860
   H    -13.260  12.790  71.980
   H    -13.290  15.170  71.510
   H    -11.690  15.590  71.570
   H    -12.500  20.910  69.260
   H    -11.990  21.500  70.610
   H    -10.020  21.160  71.800
   H    -9.310  19.520  71.780
   H    -10.830  19.780  72.610
   H    -10.540  16.170  68.450
   H    -13.570  16.610  68.160
   H    -12.770  15.880  69.540
   H    -12.960  13.510  69.550
   H    -11.250  13.660  68.970
   H    -12.270  12.540  68.180
   H    -14.860  14.330  68.240
   H    -14.530  13.260  66.970
   H    -14.670  14.970  66.700
   H    -13.150  16.150  64.580
   H    -11.760  15.110  63.990
   H    -11.680  16.830  64.010
   H    -9.740  14.470  65.400
   H    -9.160  15.740  66.420
   H    -9.440  16.100  64.710
   H    -12.470  17.490  66.520
   H    -10.770  17.840  66.340
   H    -10.500  20.450  68.270
   H    -10.020  21.500  69.590
   H    -9.190  19.270  67.010
   H    -7.400  19.000  67.410
   H    -8.500  18.070  68.100
   H    -5.960  19.190  71.830
   H    -6.860  16.300  71.230
   H    -7.780  17.400  72.150
   H    -5.450  14.620  74.030
   H    -5.680  14.680  72.300
   H    -7.080  14.840  73.370
   H    -7.480  17.410  74.590
   H    -5.930  17.050  75.280
   H    -6.120  18.420  74.240
   H    -2.150  17.240  70.530
   H    -1.750  16.870  72.020
   H    -2.960  15.770  71.320
   H    -2.710  19.600  71.400
   H    -2.470  18.780  72.910
   H    -3.880  19.660  72.750
   H    -4.900  16.810  70.140
   H    -4.390  18.520  69.860
   H    -8.560  21.630  67.250
   H    -8.170  22.350  68.650
   H    -6.930  21.350  67.830
  