239
PTMA_CHAIN3_time5
 C    95.950  57.310  70.250
   C    97.260  58.140  70.060
   C    98.490  57.210  69.920
   C    97.390  58.960  71.380
   O    98.370  58.780  72.100
   O    96.370  59.960  71.550
   C    96.310  60.800  72.700
   C    96.020  62.240  72.270
   C    95.920  63.130  73.460
   C    97.040  64.160  73.700
   C    94.670  64.040  73.210
   N    95.640  62.440  74.750
   H    95.730  63.030  75.670
   C    95.060  61.070  74.920
   C    95.960  60.290  75.910
   C    93.610  61.170  75.480
   C    95.120  60.360  73.590
   C    97.110  59.140  68.900
   C    98.330  59.860  68.180
   C    99.140  60.630  69.270
   C    99.080  58.870  67.280
   O    100.290  58.960  67.120
   O    98.280  58.060  66.540
   C    98.860  57.170  65.510
   C    97.840  56.010  65.250
   C    98.290  54.940  64.290
   C    98.920  53.660  64.900
   C    97.110  54.390  63.470
   N    99.310  55.480  63.360
   H    99.800  54.810  62.660
   C    99.510  56.900  63.050
   C    101.060  56.990  62.880
   C    98.750  57.120  61.700
   C    99.080  57.870  64.110
   C    97.660  60.970  67.200
   C    98.290  62.240  66.550
   C    98.080  63.430  67.450
   C    97.440  62.380  65.230
   O    97.720  61.600  64.330
   O    96.290  63.030  65.300
   C    95.470  63.160  64.180
   C    95.390  64.620  63.950
   C    94.610  64.940  62.700
   C    95.600  65.570  61.670
   C    93.570  66.070  62.960
   N    93.940  63.760  62.180
   H    93.900  63.650  61.100
   C    93.300  62.780  63.090
   C    93.300  61.510  62.210
   C    91.820  63.150  63.370
   C    94.050  62.680  64.380
   C    99.810  62.200  66.190
   C    100.620  63.050  65.120
   C    100.310  62.450  63.660
   C    100.550  64.650  65.000
   O    100.850  65.150  63.880
   O    99.980  65.280  66.030
   C    99.760  66.670  65.810
   C    98.290  66.970  65.600
   C    97.900  68.480  65.470
   C    96.860  68.700  66.550
   C    97.350  68.900  64.110
   N    99.150  69.330  65.700
   H    99.360  70.150  65.000
   C    100.240  68.960  66.630
   C    101.590  69.520  66.140
   C    100.030  69.800  67.900
   C    100.280  67.500  66.980
   C    102.160  62.650  65.280
   C    102.980  62.610  66.600
   C    104.410  63.090  66.280
   C    102.600  63.650  67.720
   O    102.530  64.840  67.400
   O    102.240  63.140  68.920
   C    102.450  63.880  70.110
   C    101.820  65.260  70.230
   C    102.090  65.950  71.570
   C    103.290  66.890  71.470
   C    100.890  66.880  71.930
   N    102.270  64.980  72.650
   H    102.600  65.370  73.610
   C    102.280  63.470  72.550
   C    101.280  63.090  73.660
   C    103.650  62.940  72.860
   C    101.820  63.060  71.170
   C    103.050  61.210  67.310
   C    103.890  59.960  66.770
   C    103.350  59.350  65.430
   C    103.680  58.840  67.900
   O    103.160  59.120  68.940
   O    104.400  57.710  67.730
   C    104.550  56.870  68.810
   C    103.560  55.660  68.810
   C    103.780  54.690  70.000
   C    103.430  53.230  69.650
   C    102.800  55.060  71.160
   N    105.190  54.670  70.500
   O    105.510  54.000  71.490
   C    106.360  55.380  69.830
   C    107.410  54.330  69.460
   C    106.960  56.350  70.890
   C    105.900  56.200  68.640
   C    105.400  60.200  66.710
   H    96.060  56.240  70.090
   H    95.560  57.240  71.270
   H    95.060  57.610  69.700
   H    98.470  56.700  68.960
   H    98.440  56.410  70.650
   H    99.410  57.790  70.050
   H    97.190  60.680  73.320
   H    96.880  62.630  71.730
   H    95.140  62.320  71.640
   H    98.050  63.760  73.810
   H    96.920  64.720  74.630
   H    97.140  64.930  72.940
   H    94.880  64.780  72.450
   H    94.470  64.540  74.160
   H    93.830  63.380  72.970
   H    95.560  59.330  76.220
   H    96.880  60.050  75.390
   H    96.160  60.800  76.850
   H    93.020  61.900  74.910
   H    93.640  61.540  76.510
   H    93.090  60.220  75.510
   H    94.230  60.640  73.030
   H    95.110  59.270  73.590
   H    96.380  58.690  68.230
   H    96.530  59.990  69.260
   H    99.580  59.920  69.970
   H    98.590  61.420  69.780
   H    100.000  61.130  68.820
   H    99.810  56.820  65.900
   H    97.660  55.610  66.250
   H    96.910  56.480  64.940
   H    98.170  52.970  65.290
   H    99.460  53.050  64.190
   H    99.590  53.990  65.690
   H    97.350  53.530  62.840
   H    96.690  55.120  62.790
   H    96.370  54.000  64.170
   H    101.480  57.990  62.830
   H    101.530  56.440  63.710
   H    101.390  56.550  61.940
   H    98.760  56.260  61.020
   H    97.780  57.600  61.830
   H    99.340  57.820  61.110
   H    98.140  58.370  63.850
   H    99.800  58.670  64.240
   H    96.680  61.260  67.590
   H    97.340  60.290  66.420
   H    97.860  64.340  66.890
   H    97.190  63.370  68.080
   H    98.960  63.590  68.070
   H    95.890  62.690  63.290
   H    96.400  65.000  63.790
   H    94.970  65.150  64.800
   H    95.180  65.600  60.660
   H    96.520  65.010  61.480
   H    95.950  66.550  61.980
   H    92.970  66.000  63.880
   H    94.040  67.050  62.980
   H    92.780  66.150  62.210
   H    94.310  61.290  61.860
   H    92.660  61.570  61.320
   H    92.920  60.680  62.810
   H    91.690  64.070  63.930
   H    91.280  63.220  62.420
   H    91.260  62.380  63.900
   H    94.250  61.640  64.630
   H    93.540  63.060  65.270
   H    100.040  61.190  65.860
   H    100.360  62.300  67.130
   H    100.040  61.390  63.700
   H    101.200  62.560  63.040
   H    99.560  63.020  63.120
   H    100.300  67.010  64.930
   H    97.790  66.370  66.370
   H    98.070  66.370  64.710
   H    95.940  68.170  66.330
   H    96.680  69.760  66.750
   H    97.070  68.240  67.520
   H    97.860  68.330  63.330
   H    96.270  68.790  64.080
   H    97.590  69.960  64.000
   H    102.390  69.670  66.860
   H    101.980  68.720  65.520
   H    101.570  70.400  65.510
   H    99.190  69.470  68.510
   H    100.930  69.890  68.500
   H    99.710  70.800  67.610
   H    99.750  67.280  67.900
   H    101.300  67.230  67.270
   H    102.310  61.660  64.850
   H    102.730  63.260  64.590
   H    104.890  62.630  65.410
   H    105.010  62.910  67.170
   H    104.600  64.150  66.080
   H    103.540  63.930  70.200
   H    100.780  65.270  69.890
   H    102.400  65.900  69.560
   H    104.110  66.380  70.970
   H    103.490  67.220  72.490
   H    103.040  67.810  70.960
   H    100.600  67.510  71.090
   H    100.950  67.390  72.890
   H    99.960  66.310  72.000
   H    101.690  63.110  74.670
   H    101.030  62.030  73.550
   H    100.360  63.670  73.770
   H    104.320  63.250  72.060
   H    103.770  61.860  72.830
   H    104.030  63.360  73.800
   H    100.740  63.010  71.020
   H    102.120  62.020  71.040
   H    103.470  61.350  68.310
   H    102.060  60.830  67.530
   H    103.970  59.610  64.570
   H    103.510  58.270  65.490
   H    102.280  59.430  65.230
   H    104.640  57.270  69.820
   H    103.800  55.140  67.890
   H    102.590  56.140  68.740
   H    102.570  53.160  68.980
   H    103.140  52.600  70.490
   H    104.300  52.830  69.140
   H    101.800  54.700  70.900
   H    103.120  54.660  72.120
   H    102.830  56.140  71.290
   H    108.230  54.810  68.940
   H    107.860  53.830  70.320
   H    106.980  53.580  68.800
   H    106.290  57.190  71.090
   H    107.800  56.820  70.390
   H    107.230  55.890  71.840
   H    105.820  55.620  67.710
   H    106.720  56.850  68.330
   H    105.890  59.320  66.310
   H    105.760  60.990  66.050
   H    105.780  60.260  67.730
  