239
PTMA_CHAIN1_time5
 C    97.010  23.930  78.480
   C    95.840  24.920  78.210
   C    94.740  24.610  79.290
   C    95.290  24.710  76.780
   O    95.880  25.230  75.850
   O    94.180  24.000  76.760
   C    93.510  23.620  75.600
   C    93.840  22.190  75.320
   C    93.080  21.770  74.080
   C    94.030  22.030  72.900
   C    92.780  20.220  74.110
   N    91.750  22.510  73.850
   O    91.090  22.250  72.810
   C    91.070  23.300  74.940
   C    90.300  24.460  74.290
   C    90.050  22.340  75.640
   C    92.040  23.840  75.980
   C    96.530  26.290  78.280
   C    95.660  27.580  78.460
   C    94.360  27.600  77.590
   C    95.230  27.730  80.010
   O    94.460  28.610  80.350
   O    95.940  26.980  80.930
   C    96.230  27.480  82.210
   C    95.120  27.150  83.240
   C    95.570  27.240  84.740
   C    94.620  28.210  85.510
   C    95.460  25.820  85.300
   N    96.970  27.680  84.930
   O    97.130  28.470  85.880
   C    98.040  27.130  84.040
   C    99.120  28.200  83.690
   C    98.780  25.960  84.780
   C    97.500  26.700  82.670
   C    96.640  28.600  77.840
   C    96.780  30.150  78.120
   C    97.690  30.600  76.970
   C    97.530  30.320  79.480
   O    97.480  29.540  80.430
   O    98.370  31.400  79.510
   C    99.330  31.530  80.590
   C    99.060  32.690  81.470
   C    100.020  32.690  82.650
   C    99.850  31.530  83.650
   C    99.710  33.970  83.360
   N    101.510  32.730  82.230
   O    102.370  33.110  83.100
   C    101.900  31.990  80.950
   C    102.560  30.660  81.380
   C    102.990  32.790  80.220
   C    100.670  31.870  79.950
   C    95.340  30.840  77.980
   C    94.920  32.340  78.400
   C    95.350  32.500  79.830
   C    95.550  33.450  77.470
   O    96.350  33.270  76.560
   O    94.990  34.660  77.620
   C    95.400  35.800  76.880
   C    94.920  35.790  75.490
   C    95.500  36.960  74.670
   C    94.740  37.130  73.350
   C    96.980  36.560  74.360
   N    95.540  38.260  75.540
   O    95.840  39.360  74.990
   C    95.140  38.360  76.980
   C    96.420  38.840  77.710
   C    94.080  39.500  77.200
   C    94.770  37.010  77.580
   C    93.320  32.400  78.430
   C    92.280  32.310  77.220
   C    91.660  33.750  76.910
   C    92.990  32.050  75.880
   O    93.580  32.980  75.350
   O    93.020  30.740  75.470
   C    93.360  30.540  74.120
   C    94.830  30.480  73.860
   C    95.040  30.460  72.350
   C    94.810  31.860  71.800
   C    96.520  30.130  72.130
   N    94.140  29.380  71.700
   O    94.480  28.900  70.570
   C    92.830  28.950  72.260
   C    92.630  27.450  71.990
   C    91.680  29.700  71.470
   C    92.840  29.150  73.810
   C    91.200  31.150  77.460
   C    89.690  31.400  77.990
   C    89.680  32.320  79.250
   C    89.170  30.010  78.320
   O    88.280  29.410  77.630
   O    89.740  29.500  79.440
   C    89.420  28.160  79.800
   C    90.850  27.630  79.940
   C    90.830  26.140  80.420
   C    91.960  25.890  81.450
   C    91.010  25.240  79.190
   N    89.570  25.680  81.120
   O    89.480  24.500  81.340
   C    88.580  26.640  81.730
   C    88.810  26.600  83.270
   C    87.160  26.100  81.520
   C    88.790  28.100  81.190
   C    88.680  31.950  76.890
   H    97.440  24.020  79.480
   H    96.670  22.900  78.330
   H    97.780  24.030  77.720
   H    95.190  24.460  80.270
   H    94.250  23.630  79.240
   H    93.850  25.240  79.300
   H    93.710  24.170  74.690
   H    94.880  21.860  75.260
   H    93.520  21.590  76.170
   H    94.610  22.950  72.930
   H    93.480  22.040  71.960
   H    94.760  21.230  72.800
   H    92.500  19.890  73.110
   H    91.930  19.930  74.730
   H    93.560  19.520  74.420
   H    89.790  24.060  73.410
   H    89.560  24.950  74.920
   H    91.010  25.180  73.890
   H    89.470  22.850  76.410
   H    90.530  21.510  76.160
   H    89.330  22.020  74.880
   H    91.810  23.330  76.920
   H    91.770  24.890  76.100
   H    97.270  26.260  79.080
   H    97.170  26.380  77.410
   H    93.690  28.450  77.760
   H    93.640  26.790  77.740
   H    94.590  27.570  76.530
   H    96.410  28.550  82.190
   H    94.370  27.910  83.030
   H    94.670  26.170  83.090
   H    93.560  28.000  85.370
   H    94.780  28.180  86.590
   H    94.790  29.230  85.180
   H    96.050  25.640  86.200
   H    95.790  25.130  84.520
   H    94.490  25.400  85.560
   H    100.050  27.790  83.280
   H    98.700  28.810  82.890
   H    99.230  28.840  84.570
   H    99.440  26.430  85.520
   H    98.060  25.300  85.250
   H    99.480  25.320  84.250
   H    97.290  25.640  82.580
   H    98.250  26.840  81.890
   H    96.560  28.570  76.760
   H    97.640  28.220  78.050
   H    97.200  30.460  76.010
   H    98.070  31.630  76.940
   H    98.520  29.900  76.910
   H    99.450  30.610  81.160
   H    98.070  32.580  81.910
   H    99.080  33.620  80.900
   H    100.390  30.620  83.360
   H    98.830  31.160  83.740
   H    100.110  31.810  84.670
   H    100.010  34.900  82.880
   H    98.640  34.130  83.470
   H    100.150  34.020  84.360
   H    102.690  30.520  82.450
   H    103.540  30.520  80.920
   H    101.900  29.840  81.120
   H    103.850  32.860  80.890
   H    103.170  32.270  79.270
   H    102.770  33.830  79.970
   H    100.850  31.090  79.210
   H    100.610  32.770  79.340
   H    94.610  30.220  78.500
   H    95.070  30.700  76.930
   H    95.270  31.640  80.500
   H    94.720  33.250  80.320
   H    96.400  32.790  79.910
   H    96.480  35.910  76.960
   H    93.850  35.950  75.400
   H    95.280  34.860  75.040
   H    95.140  36.370  72.680
   H    94.890  38.070  72.820
   H    93.670  36.950  73.440
   H    97.440  37.250  73.650
   H    97.590  36.630  75.270
   H    97.100  35.550  73.990
   H    96.710  38.540  78.720
   H    97.270  38.540  77.090
   H    96.420  39.930  77.780
   H    93.100  39.140  76.880
   H    93.990  39.700  78.270
   H    94.320  40.420  76.680
   H    93.690  36.890  77.580
   H    95.060  37.030  78.630
   H    93.130  31.580  79.120
   H    93.120  33.320  78.980
   H    91.090  34.060  77.780
   H    90.970  33.740  76.060
   H    92.400  34.520  76.720
   H    92.910  31.310  73.490
   H    95.230  29.560  74.280
   H    95.390  31.320  74.280
   H    94.970  32.720  72.440
   H    93.820  32.010  71.370
   H    95.400  32.000  70.890
   H    97.210  30.900  72.470
   H    96.710  30.020  71.060
   H    96.830  29.200  72.610
   H    92.700  27.080  70.960
   H    91.630  27.150  72.320
   H    93.360  26.810  72.490
   H    90.730  29.400  71.900
   H    91.790  29.420  70.420
   H    91.580  30.790  71.550
   H    93.540  28.380  74.140
   H    91.850  28.950  74.220
   H    91.000  30.640  76.510
   H    91.610  30.440  78.170
   H    89.040  33.180  79.080
   H    89.380  31.800  80.150
   H    90.640  32.690  79.620
   H    88.810  27.640  79.070
   H    91.330  28.320  80.630
   H    91.300  27.720  78.950
   H    92.930  26.100  80.990
   H    91.930  24.870  81.830
   H    91.840  26.540  82.320
   H    91.320  24.230  79.440
   H    90.090  25.100  78.620
   H    91.740  25.620  78.480
   H    88.250  27.350  83.840
   H    88.520  25.670  83.750
   H    89.880  26.670  83.480
   H    87.040  25.070  81.870
   H    86.830  26.050  80.480
   H    86.440  26.680  82.080
   H    89.310  28.850  81.780
   H    87.800  28.540  81.050
   H    88.850  31.620  75.860
   H    87.650  31.920  77.240
   H    88.840  33.030  76.810
  