239
chainlength_6ptma_time_33.33%rad_5ps
 C    20.130  20.240  30.530
   C    19.440  19.960  29.180
   C    19.560  18.430  29.070
   C    20.270  20.610  28.020
   O    20.660  19.950  27.080
   O    20.450  21.940  28.140
   C    21.280  22.640  27.150
   C    20.380  23.500  26.260
   C    21.120  24.230  25.160
   C    21.130  23.400  23.870
   C    20.430  25.520  24.820
   N    22.520  24.450  25.570
   H    23.230  24.530  24.740
   C    23.050  24.410  26.960
   C    24.460  23.920  26.900
   C    23.080  25.830  27.550
   C    22.190  23.550  27.880
   C    17.990  20.470  29.350
   C    16.780  20.140  28.310
   C    17.170  20.690  26.920
   C    16.350  18.660  28.170
   O    15.700  18.340  27.150
   O    16.870  17.910  29.100
   C    16.340  16.680  29.450
   C    17.080  15.580  28.740
   C    16.460  14.190  28.920
   C    15.220  13.980  27.970
   C    17.580  13.180  28.630
   N    16.070  14.090  30.360
   O    15.490  13.030  30.690
   C    16.390  15.080  31.430
   C    15.180  15.120  32.400
   C    17.720  14.650  32.120
   C    16.600  16.540  30.930
   C    15.530  20.960  28.850
   C    13.950  20.730  28.770
   C    13.420  22.070  29.290
   C    13.580  19.710  29.830
   O    14.400  18.870  30.240
   O    12.430  19.970  30.570
   C    12.040  19.110  31.700
   C    10.540  18.790  31.720
   C    10.200  17.770  32.790
   C    10.220  16.330  32.250
   C    8.690  18.080  33.320
   N    11.150  17.790  33.910
   H    10.970  17.070  34.710
   C    12.020  18.990  34.220
   C    13.260  18.490  35.050
   C    11.190  19.780  35.240
   C    12.280  19.830  33.000
   C    13.340  20.420  27.300
   C    12.070  19.520  26.970
   C    12.350  18.020  27.270
   C    10.780  19.920  27.760
   O    10.090  19.130  28.330
   O    10.530  21.260  27.760
   C    9.540  21.810  28.580
   C    9.830  23.300  28.720
   C    8.980  24.000  29.760
   C    9.070  25.520  29.620
   C    9.580  23.710  31.200
   N    7.530  23.510  29.670
   O    6.730  24.140  30.440
   C    7.090  22.230  29.000
   C    6.710  21.140  30.030
   C    5.850  22.540  28.220
   C    8.100  21.650  28.000
   C    11.980  19.540  25.400
   C    10.660  19.780  24.660
   C    9.510  18.740  24.990
   C    10.180  21.210  24.930
   O    9.050  21.580  24.640
   O    11.200  22.050  25.160
   C    10.920  23.420  25.330
   C    12.070  24.120  25.940
   C    11.960  25.630  26.060
   C    12.060  26.080  27.530
   C    13.080  26.390  25.230
   N    10.600  26.040  25.600
   H    9.900  26.500  26.290
   C    10.070  25.530  24.310
   C    10.490  26.570  23.130
   C    8.520  25.490  24.560
   C    10.600  24.120  24.010
   C    10.830  19.800  23.080
   C    11.410  18.680  22.210
   C    11.010  17.270  22.580
   C    12.980  18.750  22.320
   O    13.630  19.710  22.750
   O    13.540  17.580  21.980
   C    14.970  17.450  22.010
   C    15.200  16.960  23.460
   C    16.720  16.990  23.620
   C    17.170  15.980  24.650
   C    17.320  18.280  24.090
   N    17.510  16.600  22.420
   H    18.530  16.280  22.590
   C    16.900  16.230  21.170
   C    17.260  14.800  20.870
   C    17.690  17.090  20.130
   C    15.420  16.380  21.080
   C    11.020  19.030  20.720
   H    19.590  19.940  31.430
   H    21.100  19.740  30.530
   H    20.510  21.250  30.690
   H    19.050  17.950  29.910
   H    20.570  18.050  28.930
   H    19.060  18.170  28.140
   H    21.820  21.940  26.520
   H    19.600  22.880  25.820
   H    19.860  24.240  26.860
   H    21.730  22.500  23.940
   H    21.540  23.950  23.020
   H    20.150  23.080  23.510
   H    19.350  25.460  24.690
   H    20.890  26.040  23.980
   H    20.570  26.200  25.650
   H    25.020  24.420  26.100
   H    24.950  24.040  27.860
   H    24.510  22.840  26.740
   H    22.080  26.140  27.850
   H    23.410  26.570  26.820
   H    23.730  25.920  28.430
   H    21.520  24.230  28.410
   H    22.800  22.950  28.550
   H    17.630  19.970  30.250
   H    18.040  21.540  29.550
   H    17.650  21.670  27.020
   H    16.210  20.830  26.430
   H    17.810  20.020  26.340
   H    15.260  16.710  29.260
   H    17.030  15.800  27.670
   H    18.150  15.730  28.920
   H    15.570  13.580  27.020
   H    14.550  13.210  28.350
   H    14.620  14.850  27.710
   H    17.090  12.210  28.540
   H    18.350  13.110  29.400
   H    18.080  13.410  27.690
   H    15.210  14.290  33.110
   H    15.140  16.030  32.990
   H    14.260  15.100  31.800
   H    17.960  15.220  33.020
   H    17.570  13.620  32.430
   H    18.590  14.700  31.470
   H    17.550  16.970  31.240
   H    15.780  17.120  31.350
   H    15.710  21.960  28.430
   H    15.830  21.070  29.890
   H    13.620  22.860  28.570
   H    12.340  22.090  29.380
   H    13.800  22.240  30.300
   H    12.580  18.160  31.700
   H    10.210  18.370  30.770
   H    9.960  19.710  31.850
   H    10.450  15.540  32.970
   H    10.850  16.130  31.390
   H    9.240  16.060  31.850
   H    8.560  19.090  33.710
   H    7.970  18.030  32.510
   H    8.440  17.300  34.040
   H    13.840  19.330  35.460
   H    13.910  17.800  34.510
   H    12.890  18.030  35.960
   H    10.210  20.070  34.850
   H    10.960  19.270  36.170
   H    11.630  20.740  35.510
   H    13.340  20.080  32.920
   H    11.700  20.750  32.990
   H    14.060  19.970  26.620
   H    13.100  21.370  26.810
   H    13.350  17.780  26.930
   H    11.610  17.360  26.810
   H    12.360  17.830  28.340
   H    9.570  21.450  29.610
   H    9.530  23.740  27.760
   H    10.890  23.490  28.880
   H    8.430  25.900  30.420
   H    8.640  26.010  28.750
   H    10.080  25.850  29.850
   H    8.980  24.190  31.970
   H    9.710  22.640  31.360
   H    10.590  24.120  31.210
   H    7.570  20.770  30.590
   H    6.030  21.630  30.720
   H    6.150  20.320  29.580
   H    5.030  22.620  28.940
   H    5.870  23.570  27.880
   H    5.680  21.880  27.370
   H    8.060  22.130  27.020
   H    7.840  20.590  27.920
   H    12.720  20.240  25.010
   H    12.340  18.570  25.040
   H    9.960  17.750  25.130
   H    8.750  18.730  24.210
   H    9.010  18.920  25.950
   H    10.040  23.410  25.980
   H    12.870  23.790  25.270
   H    12.380  23.770  26.920
   H    11.770  27.130  27.590
   H    13.090  25.960  27.890
   H    11.350  25.450  28.070
   H    12.840  27.430  24.980
   H    13.420  25.970  24.290
   H    13.910  26.560  25.910
   H    10.270  27.580  23.470
   H    9.910  26.450  22.220
   H    11.550  26.510  22.880
   H    8.150  24.780  25.300
   H    8.080  25.220  23.600
   H    8.130  26.470  24.820
   H    11.450  24.210  23.330
   H    9.760  23.590  23.570
   H    9.820  19.950  22.700
   H    11.450  20.670  22.870
   H    9.950  17.190  22.830
   H    11.350  16.650  21.750
   H    11.500  17.000  23.520
   H    15.500  18.400  21.920
   H    14.850  15.930  23.560
   H    14.750  17.520  24.280
   H    16.730  16.230  25.610
   H    18.260  15.990  24.710
   H    16.770  14.990  24.420
   H    18.280  18.190  24.600
   H    17.410  18.970  23.260
   H    16.600  18.690  24.800
   H    17.110  14.540  19.820
   H    18.310  14.550  21.040
   H    16.770  14.030  21.460
   H    17.510  16.780  19.100
   H    18.770  17.080  20.240
   H    17.440  18.160  20.100
   H    14.910  15.490  21.440
   H    15.140  16.580  20.050
   H    10.970  20.110  20.650
   H    11.750  18.680  19.980
   H    10.030  18.620  20.510
  
