239
chainlength_6ptma_time_33.33%rad_0.0005ps
 C    18.860  19.170  26.130
   C    17.390  19.580  25.810
   C    16.930  18.670  24.660
   C    17.480  21.030  25.320
   O    17.310  21.370  24.150
   O    17.920  21.860  26.300
   C    18.480  23.130  25.890
   C    17.410  24.190  25.660
   C    18.050  25.510  25.160
   C    18.160  25.430  23.610
   C    17.060  26.660  25.480
   N    19.450  25.690  25.690
   H    19.780  26.720  25.610
   C    19.730  25.110  27.030
   C    21.240  25.220  27.370
   C    18.950  25.780  28.200
   C    19.410  23.580  27.030
   C    16.560  19.410  27.130
   C    14.990  19.260  27.130
   C    14.370  20.420  26.340
   C    14.610  17.880  26.530
   O    13.760  17.720  25.660
   O    15.310  16.880  27.120
   C    14.920  15.500  26.870
   C    15.910  14.810  25.930
   C    16.970  13.920  26.620
   C    17.810  13.260  25.480
   C    17.990  14.810  27.400
   N    16.390  12.990  27.630
   O    16.510  11.610  27.260
   C    15.020  13.280  28.140
   C    13.850  12.660  27.340
   C    14.930  12.740  29.600
   C    14.810  14.810  28.220
   C    14.540  19.240  28.640
   C    13.070  19.520  29.200
   C    12.930  21.060  29.360
   C    13.140  18.790  30.560
   O    13.160  17.560  30.640
   O    13.310  19.620  31.630
   C    13.640  18.970  32.880
   C    12.420  18.340  33.550
   C    12.780  17.640  34.880
   C    13.510  16.310  34.580
   C    11.420  17.280  35.550
   N    13.510  18.580  35.790
   H    13.830  18.090  36.710
   C    14.600  19.430  35.210
   C    15.980  18.720  35.050
   C    14.820  20.650  36.150
   C    14.190  20.020  33.840
   C    11.890  18.960  28.290
   C    10.440  18.550  28.740
   C    10.480  17.460  29.850
   C    9.470  19.580  29.330
   O    8.250  19.420  29.290
   O    10.070  20.540  30.080
   C    9.200  21.300  30.960
   C    9.950  21.700  32.230
   C    10.130  23.220  32.480
   C    11.250  23.780  31.570
   C    10.700  23.370  33.920
   N    8.900  24.010  32.190
   O    8.270  24.530  33.360
   C    7.900  23.470  31.230
   C    6.690  22.750  31.880
   C    7.360  24.660  30.400
   C    8.570  22.480  30.240
   C    9.710  17.820  27.530
   C    9.330  18.460  26.150
   C    8.030  17.730  25.690
   C    8.860  19.940  26.250
   O    7.730  20.270  26.580
   O    9.820  20.820  25.850
   C    9.290  22.020  25.240
   C    9.110  23.160  26.230
   C    8.390  24.370  25.540
   C    6.860  24.150  25.700
   C    8.760  25.650  26.330
   N    8.680  24.400  24.060
   H    8.420  25.380  23.640
   C    10.020  23.910  23.620
   C    11.210  24.800  24.090
   C    10.080  23.830  22.070
   C    10.260  22.450  24.130
   C    10.430  18.310  25.030
   C    10.680  17.000  24.190
   C    10.960  15.780  25.080
   C    11.860  17.250  23.210
   O    12.030  18.330  22.630
   O    12.540  16.120  22.930
   C    13.400  16.090  21.750
   C    14.610  15.230  22.060
   C    15.490  14.930  20.820
   C    16.380  13.710  21.220
   C    16.420  16.140  20.590
   N    14.690  14.780  19.570
   H    15.210  14.160  18.830
   C    13.250  14.440  19.710
   C    12.970  13.040  20.310
   C    12.530  14.490  18.340
   C    12.560  15.550  20.570
   C    9.520  16.660  23.220
   H    18.910  18.110  26.390
   H    19.510  19.330  25.270
   H    19.270  19.730  26.970
   H    16.940  17.620  24.960
   H    17.600  18.750  23.800
   H    15.930  18.930  24.320
   H    19.070  22.960  24.990
   H    16.670  23.820  24.940
   H    16.860  24.360  26.590
   H    18.850  24.640  23.300
   H    18.530  26.360  23.160
   H    17.200  25.200  23.160
   H    16.060  26.420  25.110
   H    17.340  27.610  25.020
   H    16.950  26.850  26.550
   H    21.540  26.250  27.540
   H    21.480  24.650  28.270
   H    21.850  24.830  26.560
   H    17.870  25.620  28.140
   H    19.110  26.850  28.230
   H    19.270  25.390  29.160
   H    18.960  23.330  27.990
   H    20.300  22.960  26.940
   H    16.970  18.560  27.660
   H    16.800  20.260  27.780
   H    13.280  20.360  26.320
   H    14.700  20.440  25.310
   H    14.620  21.370  26.810
   H    13.940  15.480  26.390
   H    15.350  14.190  25.230
   H    16.420  15.560  25.310
   H    17.190  12.630  24.850
   H    18.270  14.020  24.850
   H    18.630  12.660  25.880
   H    18.780  14.210  27.840
   H    17.520  15.370  28.210
   H    18.450  15.530  26.720
   H    12.890  13.010  27.710
   H    13.890  12.880  26.280
   H    13.820  11.580  27.420
   H    14.980  11.660  29.640
   H    15.750  13.120  30.200
   H    13.980  13.030  30.050
   H    15.500  15.230  28.950
   H    13.830  15.040  28.640
   H    15.200  19.920  29.180
   H    14.870  18.270  29.020
   H    12.700  21.540  28.410
   H    12.170  21.310  30.090
   H    13.850  21.490  29.750
   H    14.420  18.240  32.670
   H    11.950  17.640  32.870
   H    11.660  19.110  33.690
   H    13.710  15.740  35.480
   H    14.450  16.450  34.050
   H    12.880  15.700  33.930
   H    10.860  18.170  35.830
   H    10.800  16.690  34.870
   H    11.550  16.670  36.450
   H    16.730  19.400  34.660
   H    15.960  17.880  34.360
   H    16.380  18.340  35.990
   H    13.880  21.180  36.320
   H    15.200  20.360  37.130
   H    15.540  21.350  35.730
   H    15.030  20.530  33.370
   H    13.440  20.800  33.990
   H    12.300  18.070  27.820
   H    11.770  19.700  27.500
   H    11.180  16.660  29.590
   H    9.500  17.010  29.990
   H    10.720  17.890  30.820
   H    8.410  20.620  31.280
   H    10.920  21.210  32.290
   H    9.380  21.290  33.070
   H    12.180  23.230  31.700
   H    11.450  24.830  31.770
   H    11.000  23.740  30.500
   H    10.910  24.420  34.160
   H    10.020  22.980  34.670
   H    11.640  22.820  34.020
   H    6.070  22.260  31.120
   H    7.010  21.990  32.590
   H    6.030  23.430  32.410
   H    8.170  25.190  29.900
   H    6.690  24.310  29.620
   H    6.800  25.360  31.020
   H    9.300  22.990  29.600
   H    7.820  22.110  29.530
   H    10.310  16.930  27.330
   H    8.790  17.410  27.950
   H    8.170  16.650  25.680
   H    7.700  18.070  24.710
   H    7.210  17.920  26.380
   H    8.340  21.780  24.770
   H    10.090  23.460  26.600
   H    8.560  22.830  27.110
   H    6.590  24.050  26.750
   H    6.510  23.250  25.190
   H    6.280  24.970  25.280
   H    8.570  25.520  27.390
   H    8.160  26.510  26.020
   H    9.820  25.910  26.230
   H    11.070  25.840  23.790
   H    12.140  24.470  23.630
   H    11.340  24.760  25.170
   H    9.270  23.220  21.680
   H    11.020  23.380  21.730
   H    10.050  24.810  21.590
   H    11.280  22.350  24.490
   H    10.170  21.720  23.320
   H    10.240  19.080  24.280
   H    11.390  18.590  25.480
   H    10.100  15.510  25.680
   H    11.230  14.900  24.490
   H    11.800  15.970  25.760
   H    13.740  17.100  21.510
   H    14.270  14.310  22.550
   H    15.210  15.720  22.830
   H    15.800  12.800  21.330
   H    16.890  13.910  22.160
   H    17.170  13.530  20.490
   H    17.140  15.970  19.790
   H    15.860  17.040  20.320
   H    17.020  16.370  21.480
   H    11.900  12.860  20.350
   H    13.420  12.260  19.700
   H    13.360  12.910  21.320
   H    11.450  14.410  18.450
   H    12.830  13.670  17.700
   H    12.710  15.430  17.820
   H    11.600  15.180  20.910
   H    12.350  16.410  19.940
   H    9.130  17.560  22.750
   H    9.840  16.000  22.410
   H    8.690  16.150  23.710
  
