239
chainlength_6ptma_time_33.33%rad_0.5ps
 C    19.070  19.050  27.350
   C    17.900  19.920  26.780
   C    17.570  19.420  25.350
   C    18.480  21.370  26.680
   O    18.420  21.970  25.580
   O    19.030  21.850  27.770
   C    19.450  23.250  27.680
   C    18.370  24.240  27.920
   C    18.860  25.610  27.530
   C    18.540  25.980  26.060
   C    18.110  26.550  28.410
   N    20.340  25.820  27.790
   H    20.820  26.350  26.980
   C    21.200  24.910  28.680
   C    22.590  25.000  28.130
   C    21.160  25.550  30.060
   C    20.590  23.460  28.730
   C    16.640  19.880  27.720
   C    15.030  19.490  27.480
   C    14.380  20.450  26.470
   C    14.890  18.070  26.930
   O    13.870  17.610  26.390
   O    15.920  17.390  27.290
   C    15.870  15.970  27.230
   C    16.900  15.270  26.330
   C    17.700  14.060  27.010
   C    18.090  13.050  25.920
   C    19.090  14.640  27.550
   N    16.970  13.320  28.140
   O    16.960  12.120  28.390
   C    16.110  14.140  29.070
   C    14.710  13.650  28.980
   C    16.630  13.810  30.470
   C    16.120  15.590  28.720
   C    14.430  19.310  28.960
   C    12.990  19.710  29.490
   C    13.070  21.270  29.670
   C    12.850  19.060  30.950
   O    13.120  17.850  31.090
   O    12.760  19.850  32.040
   C    12.640  19.270  33.340
   C    11.210  18.820  33.590
   C    11.010  18.420  35.040
   C    11.620  17.080  35.240
   C    9.520  18.310  35.460
   N    11.680  19.310  35.990
   H    11.050  19.650  36.810
   C    12.920  20.040  35.820
   C    14.210  19.370  36.260
   C    12.780  21.350  36.630
   C    13.030  20.370  34.290
   C    11.840  19.100  28.640
   C    10.580  18.170  29.070
   C    10.960  16.750  29.700
   C    9.540  18.930  29.990
   O    8.630  18.340  30.600
   O    9.710  20.260  30.200
   C    8.940  21.060  31.090
   C    9.750  22.300  31.270
   C    9.010  23.630  31.800
   C    9.270  24.780  30.810
   C    9.690  24.020  33.150
   N    7.550  23.530  32.070
   O    7.020  24.540  32.600
   C    6.780  22.310  31.590
   C    6.480  21.330  32.770
   C    5.480  22.700  30.830
   C    7.550  21.510  30.550
   C    9.740  17.620  27.820
   C    9.010  18.630  26.800
   C    7.550  18.100  26.640
   C    8.880  20.160  27.100
   O    7.710  20.650  27.290
   O    10.000  20.840  26.870
   C    9.980  21.970  26.000
   C    9.800  23.220  26.850
   C    9.740  24.550  26.000
   C    8.330  24.820  25.500
   C    10.430  25.780  26.680
   N    10.390  24.280  24.660
   H    10.460  25.210  24.100
   C    11.480  23.290  24.450
   C    12.870  24.010  24.760
   C    11.520  22.860  23.000
   C    11.320  22.020  25.300
   C    9.760  18.550  25.430
   C    9.520  17.540  24.260
   C    9.730  16.040  24.710
   C    10.570  17.990  23.150
   O    10.490  19.030  22.500
   O    11.610  17.070  23.160
   C    12.450  16.830  22.090
   C    13.430  15.980  22.850
   C    14.480  15.470  21.880
   C    15.090  14.110  22.300
   C    15.700  16.470  22.040
   N    14.070  15.510  20.460
   H    14.860  15.560  19.720
   C    12.640  15.250  20.080
   C    12.360  13.780  19.880
   C    12.540  15.910  18.690
   C    11.710  15.950  21.080
   C    8.190  17.710  23.530
   H    18.890  17.990  27.210
   H    20.020  19.210  26.840
   H    19.220  19.120  28.430
   H    17.190  18.410  25.450
   H    18.370  19.450  24.610
   H    16.780  20.010  24.880
   H    19.790  23.480  26.670
   H    17.440  23.900  27.460
   H    18.150  24.110  28.980
   H    19.130  25.410  25.340
   H    18.780  27.020  25.830
   H    17.530  25.730  25.730
   H    17.700  26.100  29.320
   H    17.250  26.990  27.900
   H    18.760  27.380  28.690
   H    22.920  26.030  28.010
   H    23.240  24.590  28.900
   H    22.650  24.390  27.230
   H    20.190  25.410  30.520
   H    21.340  26.620  29.960
   H    22.000  25.140  30.610
   H    20.390  23.120  29.740
   H    21.420  22.790  28.490
   H    17.040  19.370  28.590
   H    16.500  20.860  28.190
   H    13.310  20.260  26.380
   H    14.820  20.350  25.480
   H    14.480  21.490  26.800
   H    14.840  15.730  26.980
   H    16.430  14.970  25.400
   H    17.710  15.900  25.940
   H    17.270  12.370  25.710
   H    18.400  13.510  24.990
   H    18.890  12.420  26.300
   H    19.130  15.170  28.500
   H    19.540  15.190  26.720
   H    19.730  13.790  27.750
   H    13.940  14.340  29.320
   H    14.420  13.330  27.980
   H    14.580  12.790  29.640
   H    16.630  12.730  30.640
   H    17.640  14.220  30.500
   H    16.160  14.240  31.350
   H    17.080  15.940  29.090
   H    15.280  15.990  29.290
   H    15.140  19.750  29.660
   H    14.580  18.260  29.220
   H    12.960  21.830  28.740
   H    12.220  21.680  30.220
   H    13.990  21.560  30.170
   H    13.300  18.410  33.470
   H    11.000  17.950  32.970
   H    10.600  19.720  33.520
   H    11.410  16.760  36.260
   H    12.700  17.080  35.150
   H    11.270  16.350  34.510
   H    9.090  19.250  35.100
   H    9.060  17.460  34.950
   H    9.370  18.270  36.540
   H    15.110  19.980  36.250
   H    14.400  18.390  35.840
   H    14.050  19.210  37.330
   H    11.760  21.710  36.510
   H    12.830  21.180  37.700
   H    13.460  22.170  36.430
   H    14.090  20.360  34.030
   H    12.560  21.290  33.940
   H    12.190  18.600  27.740
   H    11.430  20.040  28.280
   H    12.020  16.520  29.760
   H    10.540  15.910  29.160
   H    10.710  16.590  30.750
   H    8.890  20.380  31.940
   H    10.050  22.570  30.260
   H    10.670  22.120  31.840
   H    10.300  25.050  30.570
   H    8.740  25.710  30.990
   H    9.070  24.480  29.780
   H    9.550  25.020  33.570
   H    9.500  23.280  33.930
   H    10.770  23.910  33.090
   H    6.000  20.400  32.460
   H    7.380  21.060  33.330
   H    5.810  21.670  33.560
   H    5.520  22.890  29.750
   H    4.870  21.810  30.750
   H    4.830  23.430  31.310
   H    7.520  21.980  29.570
   H    6.920  20.630  30.400
   H    10.500  17.050  27.280
   H    9.010  16.890  28.140
   H    7.430  17.100  26.250
   H    6.990  18.770  25.990
   H    7.040  18.050  27.610
   H    9.120  21.830  25.360
   H    10.630  23.350  27.540
   H    8.930  23.090  27.480
   H    7.550  24.800  26.260
   H    7.890  24.170  24.760
   H    8.370  25.820  25.070
   H    10.800  25.520  27.670
   H    9.790  26.660  26.730
   H    11.320  25.910  26.070
   H    13.010  24.990  24.300
   H    13.660  23.350  24.410
   H    13.100  24.130  25.820
   H    10.740  22.110  22.810
   H    12.410  22.300  22.700
   H    11.310  23.600  22.230
   H    12.090  21.960  26.070
   H    11.400  21.120  24.690
   H    9.620  19.530  24.960
   H    10.840  18.560  25.620
   H    9.080  15.550  25.430
   H    9.640  15.320  23.890
   H    10.740  15.930  25.110
   H    12.810  17.790  21.730
   H    12.920  15.040  23.030
   H    13.960  16.330  23.730
   H    14.460  13.240  22.110
   H    15.130  14.110  23.390
   H    16.050  13.920  21.810
   H    16.470  16.020  21.410
   H    15.430  17.410  21.550
   H    16.020  16.510  23.080
   H    11.410  13.650  19.380
   H    13.170  13.170  19.460
   H    12.110  13.410  20.880
   H    11.670  15.650  18.090
   H    13.390  15.580  18.100
   H    12.540  16.990  18.810
   H    11.180  15.150  21.610
   H    11.020  16.600  20.550
   H    7.750  18.710  23.490
   H    8.110  17.320  22.510
   H    7.380  17.120  23.960
  
