239
chainlength_6ptma_time_33.33%rad_0.05ps
 C    18.720  19.010  26.200
   C    17.320  19.460  25.790
   C    16.810  18.650  24.550
   C    17.520  20.900  25.280
   O    17.590  21.120  24.070
   O    17.830  21.730  26.250
   C    18.360  23.020  25.950
   C    17.360  24.130  25.670
   C    18.100  25.450  25.180
   C    18.230  25.350  23.690
   C    17.430  26.710  25.660
   N    19.510  25.320  25.630
   H    20.270  26.010  25.280
   C    19.640  24.800  27.060
   C    21.170  24.910  27.220
   C    19.090  25.570  28.320
   C    19.260  23.340  27.080
   C    16.410  19.450  27.070
   C    14.850  19.290  27.080
   C    14.280  20.450  26.220
   C    14.520  17.890  26.550
   O    13.880  17.780  25.500
   O    15.160  16.980  27.170
   C    15.000  15.610  26.770
   C    16.070  15.060  25.750
   C    17.070  14.200  26.440
   C    17.850  13.430  25.300
   C    18.140  14.780  27.450
   N    16.430  13.140  27.400
   O    16.810  12.020  27.270
   C    15.040  13.400  28.060
   C    13.910  12.800  27.240
   C    15.170  12.850  29.470
   C    14.970  14.850  28.090
   C    14.400  19.400  28.600
   C    13.000  19.740  29.180
   C    12.970  21.260  29.410
   C    13.080  18.970  30.470
   O    13.160  17.740  30.420
   O    13.260  19.710  31.540
   C    13.410  19.100  32.810
   C    12.240  18.510  33.530
   C    12.490  17.830  34.800
   C    13.330  16.400  34.540
   C    11.220  17.580  35.510
   N    13.320  18.730  35.610
   H    13.440  18.330  36.620
   C    14.480  19.490  35.110
   C    15.870  18.790  35.240
   C    14.580  20.620  36.110
   C    14.170  20.000  33.630
   C    11.820  19.200  28.350
   C    10.420  18.570  28.870
   C    10.420  17.340  29.890
   C    9.390  19.440  29.600
   O    8.170  19.150  29.680
   O    9.930  20.500  30.070
   C    9.170  21.210  31.010
   C    10.110  21.560  32.140
   C    10.220  23.070  32.390
   C    11.210  23.630  31.380
   C    10.740  23.340  33.820
   N    8.840  23.910  32.260
   O    8.600  24.920  32.840
   C    7.850  23.330  31.190
   C    6.590  22.730  31.830
   C    7.450  24.590  30.480
   C    8.570  22.420  30.250
   C    9.950  17.760  27.560
   C    9.650  18.470  26.200
   C    8.260  17.830  25.850
   C    9.330  19.980  26.340
   O    8.590  20.440  27.160
   O    10.040  20.740  25.620
   C    9.520  22.050  25.320
   C    9.230  23.120  26.360
   C    8.560  24.350  25.590
   C    7.080  24.150  25.500
   C    8.770  25.760  26.210
   N    8.850  24.200  24.140
   H    8.510  25.090  23.610
   C    10.180  23.750  23.680
   C    11.400  24.680  24.160
   C    10.080  23.770  22.190
   C    10.510  22.450  24.280
   C    10.750  18.290  25.080
   C    10.980  17.040  24.160
   C    11.290  15.740  24.920
   C    12.120  17.370  23.190
   O    12.100  18.460  22.560
   O    12.600  16.290  22.740
   C    13.520  16.240  21.690
   C    14.520  15.280  22.200
   C    15.450  14.860  21.010
   C    16.300  13.670  21.370
   C    16.500  15.940  20.990
   N    14.710  14.610  19.770
   H    15.210  14.290  18.860
   C    13.220  14.460  19.790
   C    12.750  13.030  20.220
   C    12.620  14.560  18.390
   C    12.670  15.530  20.640
   C    9.820  16.750  23.240
   H    18.740  18.050  26.720
   H    19.380  18.970  25.340
   H    19.230  19.700  26.870
   H    16.920  17.580  24.730
   H    17.430  18.740  23.650
   H    15.780  18.900  24.320
   H    19.020  22.900  25.090
   H    16.640  23.740  24.960
   H    16.910  24.310  26.650
   H    18.360  24.360  23.250
   H    19.110  25.890  23.350
   H    17.380  25.860  23.230
   H    16.410  26.510  25.320
   H    17.790  27.650  25.260
   H    17.560  26.900  26.720
   H    21.360  25.970  27.370
   H    21.510  24.430  28.140
   H    21.770  24.600  26.360
   H    18.020  25.420  28.450
   H    19.190  26.650  28.200
   H    19.530  25.330  29.290
   H    18.640  23.170  27.960
   H    20.190  22.790  27.190
   H    16.800  18.640  27.690
   H    16.640  20.320  27.690
   H    13.190  20.480  26.250
   H    14.660  20.380  25.200
   H    14.660  21.380  26.620
   H    14.020  15.560  26.290
   H    15.430  14.550  25.020
   H    16.550  15.750  25.070
   H    17.100  12.800  24.810
   H    18.310  14.150  24.630
   H    18.620  12.750  25.660
   H    18.650  14.010  28.030
   H    17.710  15.440  28.210
   H    18.940  15.300  26.930
   H    13.110  13.420  27.640
   H    14.010  12.910  26.160
   H    13.670  11.740  27.370
   H    15.420  11.800  29.580
   H    16.070  13.350  29.820
   H    14.310  13.090  30.090
   H    15.740  15.300  28.720
   H    14.130  15.140  28.710
   H    15.070  20.150  29.010
   H    14.810  18.480  28.990
   H    12.950  21.810  28.470
   H    12.040  21.410  29.960
   H    13.780  21.600  30.040
   H    14.080  18.260  32.590
   H    11.650  17.900  32.840
   H    11.540  19.330  33.700
   H    13.880  16.070  35.420
   H    14.100  16.570  33.780
   H    12.760  15.560  34.140
   H    11.010  18.550  35.970
   H    10.440  17.390  34.770
   H    11.230  16.810  36.280
   H    16.740  19.430  35.360
   H    16.160  18.180  34.390
   H    15.950  18.090  36.070
   H    13.630  21.120  36.290
   H    14.900  20.220  37.070
   H    15.340  21.360  35.860
   H    15.160  20.150  33.190
   H    13.650  20.950  33.620
   H    12.200  18.420  27.690
   H    11.630  20.070  27.730
   H    11.040  16.510  29.570
   H    9.400  16.990  30.060
   H    10.700  17.650  30.890
   H    8.370  20.580  31.410
   H    11.100  21.160  31.950
   H    9.890  20.970  33.030
   H    12.120  23.020  31.360
   H    11.570  24.660  31.400
   H    10.880  23.650  30.340
   H    11.010  24.390  33.940
   H    10.000  23.110  34.590
   H    11.620  22.710  33.960
   H    5.940  22.380  31.030
   H    6.960  21.860  32.380
   H    6.040  23.360  32.530
   H    8.200  25.370  30.350
   H    7.120  24.290  29.480
   H    6.580  25.050  30.950
   H    9.260  22.760  29.480
   H    7.830  22.030  29.550
   H    10.750  17.040  27.400
   H    9.100  17.180  27.920
   H    8.370  16.740  25.830
   H    7.930  18.050  24.840
   H    7.530  18.150  26.590
   H    8.580  21.800  24.830
   H    10.130  23.520  26.820
   H    8.610  22.770  27.180
   H    6.550  24.650  26.320
   H    6.760  23.110  25.590
   H    6.610  24.530  24.590
   H    8.500  25.880  27.260
   H    8.140  26.460  25.660
   H    9.790  26.130  26.110
   H    11.420  25.600  23.570
   H    12.380  24.290  23.920
   H    11.370  24.920  25.230
   H    9.720  22.820  21.800
   H    11.000  24.110  21.720
   H    9.390  24.520  21.770
   H    11.470  22.460  24.810
   H    10.580  21.700  23.490
   H    10.560  19.020  24.300
   H    11.650  18.670  25.570
   H    10.410  15.460  25.510
   H    11.420  14.950  24.180
   H    12.150  15.750  25.580
   H    13.880  17.240  21.450
   H    14.000  14.370  22.510
   H    14.900  15.720  23.120
   H    15.970  12.810  20.780
   H    16.280  13.490  22.450
   H    17.360  13.800  21.150
   H    17.070  15.670  20.100
   H    16.130  16.930  20.740
   H    17.120  15.870  21.890
   H    11.720  13.000  20.590
   H    12.870  12.300  19.420
   H    13.370  12.650  21.030
   H    11.620  14.150  18.240
   H    13.230  14.050  17.650
   H    12.450  15.570  18.020
   H    11.830  14.990  21.080
   H    12.280  16.290  19.960
   H    9.420  17.680  22.820
   H    10.150  16.150  22.390
   H    8.950  16.350  23.770
  
