239
chainlength_6ptma_time_33.33%rad_0.005ps
 C    18.830  19.160  26.120
   C    17.400  19.560  25.790
   C    16.940  18.670  24.680
   C    17.480  21.040  25.330
   O    17.350  21.370  24.150
   O    17.920  21.850  26.260
   C    18.490  23.140  25.890
   C    17.380  24.160  25.650
   C    18.060  25.450  25.140
   C    18.120  25.460  23.610
   C    17.120  26.690  25.480
   N    19.440  25.670  25.680
   H    19.760  26.700  25.570
   C    19.760  25.090  27.040
   C    21.260  25.210  27.360
   C    18.920  25.740  28.240
   C    19.380  23.580  27.020
   C    16.580  19.450  27.140
   C    14.990  19.290  27.140
   C    14.350  20.390  26.300
   C    14.610  17.870  26.530
   O    13.770  17.710  25.630
   O    15.270  16.870  27.120
   C    14.910  15.510  26.880
   C    15.920  14.820  25.900
   C    16.970  13.920  26.630
   C    17.830  13.310  25.450
   C    18.040  14.830  27.360
   N    16.370  12.900  27.580
   O    16.520  11.630  27.270
   C    15.020  13.320  28.130
   C    13.890  12.690  27.360
   C    14.920  12.780  29.550
   C    14.780  14.820  28.200
   C    14.530  19.250  28.650
   C    13.060  19.540  29.220
   C    12.930  21.100  29.320
   C    13.100  18.800  30.580
   O    13.130  17.570  30.640
   O    13.280  19.610  31.630
   C    13.650  18.950  32.890
   C    12.450  18.370  33.510
   C    12.780  17.630  34.800
   C    13.490  16.340  34.580
   C    11.420  17.290  35.560
   N    13.500  18.580  35.760
   H    13.700  18.110  36.720
   C    14.620  19.450  35.210
   C    15.980  18.710  35.070
   C    14.780  20.650  36.140
   C    14.160  20.010  33.820
   C    11.890  19.010  28.270
   C    10.440  18.560  28.760
   C    10.480  17.480  29.830
   C    9.460  19.590  29.340
   O    8.220  19.410  29.300
   O    10.040  20.550  30.090
   C    9.200  21.300  30.960
   C    9.940  21.670  32.220
   C    10.180  23.200  32.460
   C    11.310  23.790  31.610
   C    10.710  23.400  33.900
   N    8.890  24.010  32.230
   O    8.340  24.490  33.270
   C    7.880  23.460  31.190
   C    6.660  22.730  31.880
   C    7.370  24.650  30.420
   C    8.540  22.490  30.220
   C    9.680  17.830  27.560
   C    9.330  18.440  26.140
   C    8.050  17.730  25.700
   C    8.880  19.930  26.260
   O    7.810  20.270  26.600
   O    9.860  20.820  25.840
   C    9.310  22.020  25.250
   C    9.140  23.150  26.200
   C    8.360  24.360  25.520
   C    6.850  24.180  25.700
   C    8.780  25.650  26.310
   N    8.720  24.430  24.070
   H    8.420  25.410  23.710
   C    10.040  23.890  23.640
   C    11.230  24.790  24.120
   C    10.090  23.790  22.070
   C    10.260  22.440  24.130
   C    10.470  18.320  25.010
   C    10.690  17.000  24.200
   C    10.990  15.780  25.100
   C    11.860  17.210  23.170
   O    12.050  18.350  22.630
   O    12.580  16.170  22.900
   C    13.380  16.080  21.720
   C    14.610  15.220  22.030
   C    15.490  14.940  20.840
   C    16.400  13.650  21.270
   C    16.460  16.160  20.630
   N    14.710  14.760  19.600
   H    15.320  14.370  18.790
   C    13.220  14.430  19.680
   C    12.980  13.090  20.340
   C    12.530  14.510  18.350
   C    12.520  15.530  20.540
   C    9.520  16.640  23.250
   H    18.850  18.120  26.460
   H    19.470  19.160  25.240
   H    19.330  19.730  26.900
   H    16.940  17.630  25.000
   H    17.670  18.660  23.870
   H    15.950  19.000  24.370
   H    19.060  22.910  24.990
   H    16.670  23.800  24.910
   H    16.920  24.480  26.580
   H    18.820  24.680  23.300
   H    18.520  26.340  23.120
   H    17.130  25.160  23.250
   H    16.110  26.390  25.200
   H    17.390  27.660  25.060
   H    16.930  26.940  26.520
   H    21.520  26.260  27.500
   H    21.520  24.660  28.270
   H    21.830  24.890  26.490
   H    17.840  25.710  28.220
   H    19.020  26.830  28.230
   H    19.220  25.410  29.230
   H    18.960  23.490  28.020
   H    20.150  22.820  26.860
   H    17.000  18.570  27.630
   H    16.860  20.210  27.860
   H    13.260  20.400  26.420
   H    14.640  20.350  25.250
   H    14.590  21.320  26.830
   H    13.920  15.450  26.420
   H    15.380  14.260  25.130
   H    16.490  15.570  25.370
   H    17.180  12.640  24.900
   H    18.340  14.090  24.870
   H    18.630  12.690  25.860
   H    18.800  14.200  27.830
   H    17.510  15.330  28.170
   H    18.540  15.510  26.670
   H    12.990  13.150  27.780
   H    13.940  12.750  26.270
   H    13.900  11.600  27.430
   H    14.980  11.700  29.690
   H    15.840  13.070  30.060
   H    13.950  13.080  29.960
   H    15.430  15.090  29.040
   H    13.810  15.050  28.630
   H    15.200  19.900  29.210
   H    14.970  18.320  29.000
   H    12.660  21.610  28.400
   H    12.210  21.270  30.120
   H    13.850  21.500  29.760
   H    14.460  18.260  32.650
   H    12.000  17.690  32.790
   H    11.610  19.060  33.590
   H    13.640  15.830  35.530
   H    14.400  16.600  34.050
   H    12.790  15.820  33.920
   H    10.860  18.130  35.950
   H    10.800  16.720  34.870
   H    11.530  16.580  36.380
   H    16.810  19.270  34.640
   H    16.070  17.880  34.380
   H    16.430  18.300  35.980
   H    13.840  21.160  36.350
   H    15.160  20.420  37.140
   H    15.550  21.350  35.810
   H    15.060  20.460  33.380
   H    13.450  20.790  34.100
   H    12.270  18.120  27.770
   H    11.860  19.810  27.520
   H    11.230  16.750  29.520
   H    9.520  17.000  30.000
   H    10.640  17.920  30.820
   H    8.440  20.590  31.300
   H    10.910  21.230  32.420
   H    9.350  21.270  33.040
   H    12.240  23.230  31.690
   H    11.440  24.870  31.660
   H    11.010  23.810  30.560
   H    10.940  24.450  34.120
   H    10.000  23.050  34.650
   H    11.600  22.790  34.020
   H    6.050  22.240  31.130
   H    7.090  22.000  32.570
   H    6.000  23.360  32.480
   H    8.180  25.170  29.910
   H    6.820  24.290  29.550
   H    6.750  25.280  31.060
   H    9.230  23.060  29.600
   H    7.780  22.100  29.540
   H    10.310  16.960  27.360
   H    8.770  17.420  27.980
   H    8.200  16.650  25.690
   H    7.740  18.050  24.710
   H    7.340  17.890  26.510
   H    8.350  21.770  24.790
   H    10.090  23.540  26.560
   H    8.610  22.930  27.130
   H    6.590  24.100  26.750
   H    6.470  23.270  25.220
   H    6.200  24.850  25.120
   H    8.650  25.650  27.390
   H    8.120  26.460  26.010
   H    9.820  25.950  26.180
   H    10.930  25.800  23.850
   H    12.160  24.630  23.560
   H    11.340  24.720  25.200
   H    9.390  23.040  21.700
   H    11.070  23.480  21.700
   H    10.020  24.760  21.570
   H    11.290  22.380  24.480
   H    10.230  21.730  23.310
   H    10.290  19.080  24.250
   H    11.410  18.420  25.540
   H    10.150  15.450  25.700
   H    11.290  14.990  24.410
   H    11.870  15.880  25.740
   H    13.740  17.070  21.450
   H    14.290  14.310  22.540
   H    15.330  15.650  22.730
   H    15.840  12.720  21.310
   H    16.900  13.890  22.210
   H    17.220  13.520  20.570
   H    17.190  16.020  19.820
   H    15.870  17.010  20.270
   H    17.100  16.420  21.470
   H    11.900  12.970  20.390
   H    13.420  12.410  19.610
   H    13.480  12.810  21.260
   H    11.440  14.430  18.300
   H    12.850  13.620  17.810
   H    12.690  15.440  17.810
   H    11.560  15.110  20.840
   H    12.380  16.400  19.910
   H    9.140  17.550  22.770
   H    9.740  16.010  22.390
   H    8.630  16.290  23.770
  
