  239
chainlength_6ptma_time_33.33%rad_20ns
 C    11.300  10.570  1.190
   C    11.330  9.620  2.460
   C    11.180  8.220  1.810
   C    10.170  10.050  3.400
   O    10.340  10.580  4.540
   O    9.020  9.770  2.790
   C    7.780  10.340  3.210
   C    7.550  11.510  2.300
   C    6.130  11.960  2.350
   C    5.920  13.430  2.900
   C    5.570  11.910  0.990
   N    5.310  11.070  3.170
   H    4.500  11.510  3.770
   C    5.460  9.610  3.290
   C    5.170  9.250  4.720
   C    4.460  8.780  2.520
   C    6.880  9.220  2.910
   C    12.760  9.820  3.130
   C    13.400  8.840  4.120
   C    12.470  8.380  5.260
   C    13.950  7.540  3.370
   O    13.770  6.450  3.820
   O    14.510  7.750  2.170
   C    15.170  6.660  1.580
   C    14.110  5.960  0.730
   C    14.750  4.770  0.020
   C    14.400  3.450  0.700
   C    14.120  4.730  -1.460
   N    16.250  4.760  -0.160
   O    16.850  3.750  -0.540
   C    17.070  6.040  0.100
   C    18.110  5.700  1.180
   C    17.930  6.350  -1.140
   C    16.260  7.250  0.570
   C    14.700  9.560  4.760
   C    15.790  8.920  5.650
   C    16.310  10.230  6.270
   C    16.920  8.250  4.830
   O    16.790  7.080  4.480
   O    17.900  9.130  4.400
   C    19.060  8.790  3.630
   C    20.270  8.280  4.450
   C    21.450  7.820  3.590
   C    21.460  6.320  3.460
   C    22.840  8.250  4.100
   N    21.280  8.410  2.240
   H    21.750  7.900  1.390
   C    20.640  9.730  2.000
   C    20.000  9.540  0.560
   C    21.780  10.800  1.870
   C    19.550  10.050  2.980
   C    15.190  7.900  6.750
   C    16.060  7.210  7.910
   C    17.030  6.120  7.440
   C    16.810  8.340  8.660
   O    18.020  8.440  8.620
   O    15.980  9.140  9.250
   C    16.370  10.100  10.200
   C    16.790  11.470  9.620
   C    17.160  12.580  10.640
   C    16.760  13.960  10.020
   C    18.700  12.530  10.840
   N    16.510  12.310  11.970
   O    16.720  13.170  12.790
   C    15.310  11.400  12.150
   C    15.560  10.640  13.520
   C    14.040  12.140  12.420
   C    15.130  10.450  10.990
   C    15.090  6.500  8.900
   C    15.400  5.630  10.140
   C    15.680  4.190  9.670
   C    16.560  6.180  11.050
   O    16.340  7.250  11.620
   O    17.690  5.500  10.870
   C    18.880  6.030  11.480
   C    19.190  5.470  12.830
   C    20.210  6.360  13.430
   C    19.570  7.560  14.120
   C    20.910  5.590  14.490
   N    21.140  6.970  12.460
   H    21.950  7.550  12.880
   C    21.310  6.450  11.090
   C    22.570  5.590  11.180
   C    21.560  7.560  10.120
   C    20.070  5.630  10.660
   C    14.130  5.650  11.130
   C    12.720  5.120  10.750
   C    12.740  3.670  10.410
   C    11.880  5.980  9.700
   O    11.630  5.570  8.580
   O    11.690  7.300  10.220
   C    11.280  8.320  9.290
   C    9.740  8.310  9.290
   C    9.240  9.300  8.230
   C    8.010  10.090  8.720
   C    8.960  8.440  6.980
   N    10.270  10.320  7.990
   H    10.140  10.920  7.090
   C    11.140  10.840  9.020
   C    10.560  11.840  10.000
   C    12.290  11.660  8.340
   C    11.820  9.650  9.790
   C    11.850  5.230  12.070
   H    10.420  10.390  0.580
   H    11.400  11.620  1.460
   H    12.130  10.560  0.480
   H    10.280  8.040  1.230
   H    11.120  7.490  2.620
   H    11.980  7.850  1.170
   H    7.830  10.450  4.300
   H    8.280  12.240  2.650
   H    7.870  11.280  1.280
   H    6.040  13.480  3.980
   H    4.950  13.830  2.610
   H    6.760  14.100  2.740
   H    6.050  12.620  0.320
   H    4.490  11.990  0.980
   H    5.780  10.900  0.650
   H    4.230  9.650  5.070
   H    5.230  8.180  4.910
   H    5.900  9.750  5.360
   H    3.460  9.050  2.860
   H    4.530  7.720  2.750
   H    4.500  8.910  1.440
   H    7.010  9.080  1.830
   H    7.200  8.370  3.510
   H    13.400  9.980  2.260
   H    12.780  10.820  3.560
   H    11.540  8.050  4.790
   H    12.370  9.180  5.990
   H    12.850  7.490  5.760
   H    15.570  5.850  2.190
   H    13.220  5.720  1.320
   H    13.760  6.710  0.010
   H    14.930  2.550  0.390
   H    14.750  3.560  1.730
   H    13.330  3.240  0.720
   H    14.390  5.630  -2.010
   H    13.030  4.650  -1.540
   H    14.400  3.860  -2.060
   H    17.680  5.730  2.180
   H    18.550  4.710  1.050
   H    18.990  6.340  1.150
   H    18.140  7.420  -1.200
   H    18.890  5.820  -1.090
   H    17.420  6.030  -2.050
   H    15.790  7.940  -0.130
   H    16.920  7.900  1.140
   H    14.340  10.460  5.250
   H    15.300  10.050  4.000
   H    17.230  9.990  6.810
   H    16.700  11.030  5.640
   H    15.770  10.750  7.060
   H    18.820  7.950  2.980
   H    20.020  7.440  5.100
   H    20.760  9.030  5.070
   H    21.530  5.880  4.460
   H    22.200  6.060  2.710
   H    20.450  6.020  3.170
   H    23.720  7.940  3.530
   H    22.940  9.330  4.170
   H    22.990  7.980  5.140
   H    19.590  10.520  0.320
   H    19.250  8.760  0.630
   H    20.700  9.360  -0.250
   H    22.360  10.950  2.780
   H    22.450  10.520  1.050
   H    21.380  11.770  1.570
   H    18.780  10.620  2.450
   H    19.930  10.590  3.840
   H    14.790  7.000  6.280
   H    14.360  8.410  7.230
   H    16.650  5.320  6.800
   H    17.560  5.610  8.250
   H    17.800  6.540  6.790
   H    17.070  9.700  10.930
   H    15.910  11.850  9.100
   H    17.650  11.410  8.950
   H    16.990  13.960  8.950
   H    17.380  14.770  10.390
   H    15.710  14.220  10.180
   H    19.270  13.060  10.070
   H    18.950  12.890  11.840
   H    19.060  11.500  10.800
   H    16.330  9.870  13.540
   H    15.820  11.310  14.340
   H    14.690  10.200  14.010
   H    13.170  11.580  12.730
   H    14.190  12.860  13.220
   H    13.830  12.760  11.540
   H    14.450  10.830  10.220
   H    14.580  9.560  11.310
   H    14.330  7.240  9.160
   H    14.480  5.950  8.180
   H    14.860  3.880  9.020
   H    15.760  3.440  10.460
   H    16.540  4.090  9.000
   H    18.740  7.110  11.440
   H    19.660  4.480  12.790
   H    18.300  5.400  13.450
   H    20.170  7.970  14.930
   H    18.630  7.260  14.580
   H    19.030  8.390  13.670
   H    21.560  6.220  15.100
   H    21.510  4.750  14.130
   H    20.250  5.080  15.200
   H    22.550  5.070  10.220
   H    22.570  5.030  12.110
   H    23.430  6.250  11.130
   H    20.680  8.160  9.910
   H    21.910  7.140  9.170
   H    22.270  8.270  10.530
   H    20.250  4.550  10.690
   H    19.890  5.790  9.600
   H    14.410  5.060  12.000
   H    13.910  6.640  11.520
   H    13.490  3.280  11.090
   H    11.830  3.140  10.710
   H    12.770  3.490  9.330
   H    11.640  8.160  8.270
   H    9.190  8.530  10.200
   H    9.450  7.320  8.930
   H    7.730  10.710  7.880
   H    8.170  10.790  9.540
   H    7.170  9.430  8.940
   H    9.970  8.280  6.610
   H    8.450  7.490  7.080
   H    8.480  9.090  6.240
   H    9.850  11.250  10.590
   H    11.280  12.120  10.770
   H    10.310  12.770  9.490
   H    11.920  12.560  7.860
   H    12.860  11.130  7.580
   H    12.920  12.190  9.060
   H    11.710  9.700  10.880
   H    12.890  9.800  9.660
   H    12.220  6.090  12.630
   H    10.780  5.240  11.850
   H    12.120  4.440  12.770
  
